!- Windows Line endings 

Version,
    24.2;                     !- Version Identifier

SimulationControl,
    No,                       !- Do Zone Sizing Calculation
    No,                       !- Do System Sizing Calculation
    No,                       !- Do Plant Sizing Calculation
    No,                       !- Run Simulation for Sizing Periods
    Yes,                      !- Run Simulation for Weather File Run Periods
    No,                       !- Do HVAC Sizing Simulation for Sizing Periods
    1;                        !- Maximum Number of HVAC Sizing Simulation Passes

BUILDING,
    Pand.0599100000753816,    !- Name
    0,                        !- North Axis
    City,                     !- Terrain
    0.04,                     !- Loads Convergence Tolerance Value
    0.4,                      !- Temperature Convergence Tolerance Value
    FullExterior,             !- Solar Distribution
    25,                       !- Maximum Number of Warmup Days
    1;                        !- Minimum Number of Warmup Days

Timestep,
    6;                        !- Number of Timesteps per Hour

Site:Location,
    Rotterdam.The.Hague.AP_ZH_NLD Design_Conditions,    !- Name
    51.96,                    !- Latitude
    4.45,                     !- Longitude
    1,                        !- Time Zone
    -4.5;                     !- Elevation

RunPeriod,
    Run Period 1,             !- Name
    1,                        !- Begin Month
    1,                        !- Begin Day of Month
    ,                         !- Begin Year
    12,                       !- End Month
    31,                       !- End Day of Month
    ,                         !- End Year
    ,                         !- Day of Week for Start Day
    Yes,                      !- Use Weather File Holidays and Special Days
    Yes,                      !- Use Weather File Daylight Saving Period
    No,                       !- Apply Weekend Holiday Rule
    Yes,                      !- Use Weather File Rain Indicators
    Yes,                      !- Use Weather File Snow Indicators
    No,                       !- Treat Weather as Actual
    Hour24;                   !- First Hour Interpolation Starting Values

RunPeriodControl:DaylightSavingTime,
    Last Sunday in March,     !- Start Date
    Last Sunday in October;    !- End Date

SITE:GROUNDTEMPERATURE:BUILDINGSURFACE,
    18,                       !- January Ground Temperature
    18,                       !- February Ground Temperature
    18,                       !- March Ground Temperature
    18,                       !- April Ground Temperature
    18,                       !- May Ground Temperature
    18,                       !- June Ground Temperature
    18,                       !- July Ground Temperature
    18,                       !- August Ground Temperature
    18,                       !- September Ground Temperature
    18,                       !- October Ground Temperature
    18,                       !- November Ground Temperature
    18;                       !- December Ground Temperature

SCHEDULETYPELIMITS,
    Temperature,              !- Name
    -100,                     !- Lower Limit Value
    100,                      !- Upper Limit Value
    CONTINUOUS,               !- Numeric Type
    Temperature;              !- Unit Type

SCHEDULETYPELIMITS,
    Fraction,                 !- Name
    0,                        !- Lower Limit Value
    1,                        !- Upper Limit Value
    CONTINUOUS,               !- Numeric Type
    Dimensionless;            !- Unit Type

SCHEDULETYPELIMITS,
    Control Type,             !- Name
    0,                        !- Lower Limit Value
    4,                        !- Upper Limit Value
    DISCRETE,                 !- Numeric Type
    Dimensionless;            !- Unit Type

SCHEDULE:COMPACT,
    HeatingSetpoint_Zone_0599100000753816,    !- Name
    Temperature,              !- Schedule Type Limits Name
    Through: 12/31,           !- Field 1
    For: AllDays,             !- Field 2
    Until: 24:00,             !- Field 3
    21.0;                     !- Field 4

SCHEDULE:COMPACT,
    CoolingSetpoint_Zone_0599100000753816,    !- Name
    Temperature,              !- Schedule Type Limits Name
    Through: 12/31,           !- Field 1
    For: AllDays,             !- Field 2
    Until: 24:00,             !- Field 3
    24.0;                     !- Field 4

SCHEDULE:COMPACT,
    DualSetpointControlType,    !- Name
    Control Type,             !- Schedule Type Limits Name
    Through: 12/31,           !- Field 1
    For: AllDays,             !- Field 2
    Until: 24:00,             !- Field 3
    4;                        !- Field 4

SCHEDULE:COMPACT,
    AlwaysOn,                 !- Name
    Fraction,                 !- Schedule Type Limits Name
    Through: 12/31,           !- Field 1
    For: AllDays,             !- Field 2
    Until: 24:00,             !- Field 3
    1.0;                      !- Field 4

MATERIAL,
    G.TI.2006-2014,           !- Name
    MediumSmooth,             !- Roughness
    0.15,                     !- Thickness
    0.06,                     !- Conductivity
    540,                      !- Density
    1210,                     !- Specific Heat
    0.9,                      !- Thermal Absorptance
    0.7,                      !- Solar Absorptance
    0.7;                      !- Visible Absorptance

MATERIAL,
    F.TI.2006-2014,           !- Name
    Rough,                    !- Roughness
    0.3,                      !- Thickness
    0.12,                     !- Conductivity
    1920,                     !- Density
    840,                      !- Specific Heat
    0.9,                      !- Thermal Absorptance
    0.7,                      !- Solar Absorptance
    0.7;                      !- Visible Absorptance

MATERIAL,
    R.TI.2006-2014,           !- Name
    MediumRough,              !- Roughness
    0.2,                      !- Thickness
    0.08,                     !- Conductivity
    1500,                     !- Density
    1000,                     !- Specific Heat
    0.9,                      !- Thermal Absorptance
    0.7,                      !- Solar Absorptance
    0.7;                      !- Visible Absorptance

WINDOWMATERIAL:SIMPLEGLAZINGSYSTEM,
    W.TI.2006-2014,           !- Name
    1.8,                      !- UFactor
    0.4,                      !- Solar Heat Gain Coefficient
    0.6;                      !- Visible Transmittance

CONSTRUCTION,
    C_G,                      !- Name
    G.TI.2006-2014;           !- Outside Layer

CONSTRUCTION,
    C_F,                      !- Name
    F.TI.2006-2014;           !- Outside Layer

CONSTRUCTION,
    C_R,                      !- Name
    R.TI.2006-2014;           !- Outside Layer

GlobalGeometryRules,
    UpperLeftCorner,          !- Starting Vertex Position
    Counterclockwise,         !- Vertex Entry Direction
    World,                    !- Coordinate System
    World,                    !- Daylighting Reference Point Coordinate System
    Relative;                 !- Rectangular Surface Coordinate System

ZONE,
    Zone_0599100000753816,    !- Name
    0,                        !- Direction of Relative North
    0,                        !- X Origin
    0,                        !- Y Origin
    0,                        !- Z Origin
    1,                        !- Type
    1,                        !- Multiplier
    Autocalculate,            !- Ceiling Height
    Autocalculate,            !- Volume
    autocalculate,            !- Floor Area
    ,                         !- Zone Inside Convection Algorithm
    ,                         !- Zone Outside Convection Algorithm
    Yes;                      !- Part of Total Floor Area

BUILDINGSURFACE:DETAILED,
    G_0,                      !- Name
    Floor,                    !- Surface Type
    C_G,                      !- Construction Name
    Zone_0599100000753816,    !- Zone Name
    ,                         !- Space Name
    Ground,                   !- Outside Boundary Condition
    ,                         !- Outside Boundary Condition Object
    SunExposed,               !- Sun Exposure
    WindExposed,              !- Wind Exposure
    0.5,                      !- View Factor to Ground
    108,                      !- Number of Vertices
    37.717,                   !- Vertex 1 Xcoordinate
    36.242,                   !- Vertex 1 Ycoordinate
    2.335,                    !- Vertex 1 Zcoordinate
    36.771,                   !- Vertex 2 Xcoordinate
    34.195,                   !- Vertex 2 Ycoordinate
    2.335,                    !- Vertex 2 Zcoordinate
    32.901,                   !- Vertex 3 Xcoordinate
    34.24,                    !- Vertex 3 Ycoordinate
    2.335,                    !- Vertex 3 Zcoordinate
    32.903,                   !- Vertex 4 Xcoordinate
    34.645,                   !- Vertex 4 Ycoordinate
    2.335,                    !- Vertex 4 Zcoordinate
    27.935,                   !- Vertex 5 Xcoordinate
    34.635,                   !- Vertex 5 Ycoordinate
    2.335,                    !- Vertex 5 Zcoordinate
    27.862,                   !- Vertex 6 Xcoordinate
    20.127,                   !- Vertex 6 Ycoordinate
    2.335,                    !- Vertex 6 Zcoordinate
    19.744,                   !- Vertex 7 Xcoordinate
    20.333,                   !- Vertex 7 Ycoordinate
    2.335,                    !- Vertex 7 Zcoordinate
    19.244,                   !- Vertex 8 Xcoordinate
    13.38,                    !- Vertex 8 Ycoordinate
    2.335,                    !- Vertex 8 Zcoordinate
    33.481,                   !- Vertex 9 Xcoordinate
    13.459,                   !- Vertex 9 Ycoordinate
    2.335,                    !- Vertex 9 Zcoordinate
    33.594,                   !- Vertex 10 Xcoordinate
    7.68,                     !- Vertex 10 Ycoordinate
    2.335,                    !- Vertex 10 Zcoordinate
    53.086,                   !- Vertex 11 Xcoordinate
    8.366,                    !- Vertex 11 Ycoordinate
    2.335,                    !- Vertex 11 Zcoordinate
    54.516,                   !- Vertex 12 Xcoordinate
    8.965,                    !- Vertex 12 Ycoordinate
    2.335,                    !- Vertex 12 Zcoordinate
    54.527,                   !- Vertex 13 Xcoordinate
    12.59,                    !- Vertex 13 Ycoordinate
    2.335,                    !- Vertex 13 Zcoordinate
    60.667,                   !- Vertex 14 Xcoordinate
    12.833,                   !- Vertex 14 Ycoordinate
    2.335,                    !- Vertex 14 Zcoordinate
    60.958,                   !- Vertex 15 Xcoordinate
    8.643,                    !- Vertex 15 Ycoordinate
    2.335,                    !- Vertex 15 Zcoordinate
    82.238,                   !- Vertex 16 Xcoordinate
    9.393,                    !- Vertex 16 Ycoordinate
    2.335,                    !- Vertex 16 Zcoordinate
    82.988,                   !- Vertex 17 Xcoordinate
    13.53,                    !- Vertex 17 Ycoordinate
    2.335,                    !- Vertex 17 Zcoordinate
    92.752,                   !- Vertex 18 Xcoordinate
    13.838,                   !- Vertex 18 Ycoordinate
    2.335,                    !- Vertex 18 Zcoordinate
    92.766,                   !- Vertex 19 Xcoordinate
    13.668,                   !- Vertex 19 Ycoordinate
    2.335,                    !- Vertex 19 Zcoordinate
    93.953,                   !- Vertex 20 Xcoordinate
    14.425,                   !- Vertex 20 Ycoordinate
    2.335,                    !- Vertex 20 Zcoordinate
    96.152,                   !- Vertex 21 Xcoordinate
    9.801,                    !- Vertex 21 Ycoordinate
    2.335,                    !- Vertex 21 Zcoordinate
    95.963,                   !- Vertex 22 Xcoordinate
    9.731,                    !- Vertex 22 Ycoordinate
    2.335,                    !- Vertex 22 Zcoordinate
    93.052,                   !- Vertex 23 Xcoordinate
    8.487,                    !- Vertex 23 Ycoordinate
    2.335,                    !- Vertex 23 Zcoordinate
    93.062,                   !- Vertex 24 Xcoordinate
    3.87,                     !- Vertex 24 Ycoordinate
    2.335,                    !- Vertex 24 Zcoordinate
    90.776,                   !- Vertex 25 Xcoordinate
    3.043,                    !- Vertex 25 Ycoordinate
    2.335,                    !- Vertex 25 Zcoordinate
    86.338,                   !- Vertex 26 Xcoordinate
    2.894,                    !- Vertex 26 Ycoordinate
    2.335,                    !- Vertex 26 Zcoordinate
    86.264,                   !- Vertex 27 Xcoordinate
    2.963,                    !- Vertex 27 Ycoordinate
    2.335,                    !- Vertex 27 Zcoordinate
    84.222,                   !- Vertex 28 Xcoordinate
    2.987,                    !- Vertex 28 Ycoordinate
    2.335,                    !- Vertex 28 Zcoordinate
    84.307,                   !- Vertex 29 Xcoordinate
    2.825,                    !- Vertex 29 Ycoordinate
    2.335,                    !- Vertex 29 Zcoordinate
    61.846,                   !- Vertex 30 Xcoordinate
    2.07,                     !- Vertex 30 Ycoordinate
    2.335,                    !- Vertex 30 Zcoordinate
    61.873,                   !- Vertex 31 Xcoordinate
    2.121,                    !- Vertex 31 Ycoordinate
    2.335,                    !- Vertex 31 Zcoordinate
    61.008,                   !- Vertex 32 Xcoordinate
    2.155,                    !- Vertex 32 Ycoordinate
    2.335,                    !- Vertex 32 Zcoordinate
    61.015,                   !- Vertex 33 Xcoordinate
    2.042,                    !- Vertex 33 Ycoordinate
    2.335,                    !- Vertex 33 Zcoordinate
    40.508,                   !- Vertex 34 Xcoordinate
    1.351,                    !- Vertex 34 Ycoordinate
    2.335,                    !- Vertex 34 Zcoordinate
    39.535,                   !- Vertex 35 Xcoordinate
    1.45,                     !- Vertex 35 Ycoordinate
    2.335,                    !- Vertex 35 Zcoordinate
    39.629,                   !- Vertex 36 Xcoordinate
    1.322,                    !- Vertex 36 Ycoordinate
    2.335,                    !- Vertex 36 Zcoordinate
    0.341,                    !- Vertex 37 Xcoordinate
    0,                        !- Vertex 37 Ycoordinate
    2.335,                    !- Vertex 37 Zcoordinate
    0,                        !- Vertex 38 Xcoordinate
    9.247,                    !- Vertex 38 Ycoordinate
    2.335,                    !- Vertex 38 Zcoordinate
    0.375,                    !- Vertex 39 Xcoordinate
    9.257,                    !- Vertex 39 Ycoordinate
    2.335,                    !- Vertex 39 Zcoordinate
    3.902,                    !- Vertex 40 Xcoordinate
    44.513,                   !- Vertex 40 Ycoordinate
    2.335,                    !- Vertex 40 Zcoordinate
    4.081,                    !- Vertex 41 Xcoordinate
    44.51,                    !- Vertex 41 Ycoordinate
    2.335,                    !- Vertex 41 Zcoordinate
    4.101,                    !- Vertex 42 Xcoordinate
    44.815,                   !- Vertex 42 Ycoordinate
    2.335,                    !- Vertex 42 Zcoordinate
    33.005,                   !- Vertex 43 Xcoordinate
    44.876,                   !- Vertex 43 Ycoordinate
    2.335,                    !- Vertex 43 Zcoordinate
    33.174,                   !- Vertex 44 Xcoordinate
    44.596,                   !- Vertex 44 Ycoordinate
    2.335,                    !- Vertex 44 Zcoordinate
    33.59,                    !- Vertex 45 Xcoordinate
    44.589,                   !- Vertex 45 Ycoordinate
    2.335,                    !- Vertex 45 Zcoordinate
    33.475,                   !- Vertex 46 Xcoordinate
    44.877,                   !- Vertex 46 Ycoordinate
    2.335,                    !- Vertex 46 Zcoordinate
    35.464,                   !- Vertex 47 Xcoordinate
    44.881,                   !- Vertex 47 Ycoordinate
    2.335,                    !- Vertex 47 Zcoordinate
    35.646,                   !- Vertex 48 Xcoordinate
    44.463,                   !- Vertex 48 Ycoordinate
    2.335,                    !- Vertex 48 Zcoordinate
    35.994,                   !- Vertex 49 Xcoordinate
    44.444,                   !- Vertex 49 Ycoordinate
    2.335,                    !- Vertex 49 Zcoordinate
    36.39,                    !- Vertex 50 Xcoordinate
    44.883,                   !- Vertex 50 Ycoordinate
    2.335,                    !- Vertex 50 Zcoordinate
    38.705,                   !- Vertex 51 Xcoordinate
    44.888,                   !- Vertex 51 Ycoordinate
    2.335,                    !- Vertex 51 Zcoordinate
    38.705,                   !- Vertex 52 Xcoordinate
    45.023,                   !- Vertex 52 Ycoordinate
    2.335,                    !- Vertex 52 Zcoordinate
    40.823,                   !- Vertex 53 Xcoordinate
    44.525,                   !- Vertex 53 Ycoordinate
    2.335,                    !- Vertex 53 Zcoordinate
    40.867,                   !- Vertex 54 Xcoordinate
    44.902,                   !- Vertex 54 Ycoordinate
    2.335,                    !- Vertex 54 Zcoordinate
    41.08,                    !- Vertex 55 Xcoordinate
    44.465,                   !- Vertex 55 Ycoordinate
    2.335,                    !- Vertex 55 Zcoordinate
    41.39,                    !- Vertex 56 Xcoordinate
    44.392,                   !- Vertex 56 Ycoordinate
    2.335,                    !- Vertex 56 Zcoordinate
    42.224,                   !- Vertex 57 Xcoordinate
    45.567,                   !- Vertex 57 Ycoordinate
    2.335,                    !- Vertex 57 Zcoordinate
    43.404,                   !- Vertex 58 Xcoordinate
    44.712,                   !- Vertex 58 Ycoordinate
    2.335,                    !- Vertex 58 Zcoordinate
    43.728,                   !- Vertex 59 Xcoordinate
    45.251,                   !- Vertex 59 Ycoordinate
    2.335,                    !- Vertex 59 Zcoordinate
    44.024,                   !- Vertex 60 Xcoordinate
    44.767,                   !- Vertex 60 Ycoordinate
    2.335,                    !- Vertex 60 Zcoordinate
    44.322,                   !- Vertex 61 Xcoordinate
    44.822,                   !- Vertex 61 Ycoordinate
    2.335,                    !- Vertex 61 Zcoordinate
    44.273,                   !- Vertex 62 Xcoordinate
    44.944,                   !- Vertex 62 Ycoordinate
    2.335,                    !- Vertex 62 Zcoordinate
    44.79,                    !- Vertex 63 Xcoordinate
    44.909,                   !- Vertex 63 Ycoordinate
    2.335,                    !- Vertex 63 Zcoordinate
    48.652,                   !- Vertex 64 Xcoordinate
    45.625,                   !- Vertex 64 Ycoordinate
    2.335,                    !- Vertex 64 Zcoordinate
    48.038,                   !- Vertex 65 Xcoordinate
    44.689,                   !- Vertex 65 Ycoordinate
    2.335,                    !- Vertex 65 Zcoordinate
    48.75,                    !- Vertex 66 Xcoordinate
    44.641,                   !- Vertex 66 Ycoordinate
    2.335,                    !- Vertex 66 Zcoordinate
    49.12,                    !- Vertex 67 Xcoordinate
    45.259,                   !- Vertex 67 Ycoordinate
    2.335,                    !- Vertex 67 Zcoordinate
    49.462,                   !- Vertex 68 Xcoordinate
    44.703,                   !- Vertex 68 Ycoordinate
    2.335,                    !- Vertex 68 Zcoordinate
    51.554,                   !- Vertex 69 Xcoordinate
    45.716,                   !- Vertex 69 Ycoordinate
    2.335,                    !- Vertex 69 Zcoordinate
    52.139,                   !- Vertex 70 Xcoordinate
    44.433,                   !- Vertex 70 Ycoordinate
    2.335,                    !- Vertex 70 Zcoordinate
    53.82,                    !- Vertex 71 Xcoordinate
    46.472,                   !- Vertex 71 Ycoordinate
    2.335,                    !- Vertex 71 Zcoordinate
    55.03,                    !- Vertex 72 Xcoordinate
    44.453,                   !- Vertex 72 Ycoordinate
    2.335,                    !- Vertex 72 Zcoordinate
    55.392,                   !- Vertex 73 Xcoordinate
    44.756,                   !- Vertex 73 Ycoordinate
    2.335,                    !- Vertex 73 Zcoordinate
    55.141,                   !- Vertex 74 Xcoordinate
    45.178,                   !- Vertex 74 Ycoordinate
    2.335,                    !- Vertex 74 Zcoordinate
    59.785,                   !- Vertex 75 Xcoordinate
    44.906,                   !- Vertex 75 Ycoordinate
    2.335,                    !- Vertex 75 Zcoordinate
    60.05,                    !- Vertex 76 Xcoordinate
    45.331,                   !- Vertex 76 Ycoordinate
    2.335,                    !- Vertex 76 Zcoordinate
    60.353,                   !- Vertex 77 Xcoordinate
    45.305,                   !- Vertex 77 Ycoordinate
    2.335,                    !- Vertex 77 Zcoordinate
    60.406,                   !- Vertex 78 Xcoordinate
    45.273,                   !- Vertex 78 Ycoordinate
    2.335,                    !- Vertex 78 Zcoordinate
    64.556,                   !- Vertex 79 Xcoordinate
    44.934,                   !- Vertex 79 Ycoordinate
    2.335,                    !- Vertex 79 Zcoordinate
    64.882,                   !- Vertex 80 Xcoordinate
    45.327,                   !- Vertex 80 Ycoordinate
    2.335,                    !- Vertex 80 Zcoordinate
    65.176,                   !- Vertex 81 Xcoordinate
    45.253,                   !- Vertex 81 Ycoordinate
    2.335,                    !- Vertex 81 Zcoordinate
    67.445,                   !- Vertex 82 Xcoordinate
    44.679,                   !- Vertex 82 Ycoordinate
    2.335,                    !- Vertex 82 Zcoordinate
    67.623,                   !- Vertex 83 Xcoordinate
    44.663,                   !- Vertex 83 Ycoordinate
    2.335,                    !- Vertex 83 Zcoordinate
    67.694,                   !- Vertex 84 Xcoordinate
    45.008,                   !- Vertex 84 Ycoordinate
    2.335,                    !- Vertex 84 Zcoordinate
    67.941,                   !- Vertex 85 Xcoordinate
    44.554,                   !- Vertex 85 Ycoordinate
    2.335,                    !- Vertex 85 Zcoordinate
    68.452,                   !- Vertex 86 Xcoordinate
    44.424,                   !- Vertex 86 Ycoordinate
    2.335,                    !- Vertex 86 Zcoordinate
    68.765,                   !- Vertex 87 Xcoordinate
    45.582,                   !- Vertex 87 Ycoordinate
    2.335,                    !- Vertex 87 Zcoordinate
    70.427,                   !- Vertex 88 Xcoordinate
    44.762,                   !- Vertex 88 Ycoordinate
    2.335,                    !- Vertex 88 Zcoordinate
    70.753,                   !- Vertex 89 Xcoordinate
    45.313,                   !- Vertex 89 Ycoordinate
    2.335,                    !- Vertex 89 Zcoordinate
    71.078,                   !- Vertex 90 Xcoordinate
    44.77,                    !- Vertex 90 Ycoordinate
    2.335,                    !- Vertex 90 Zcoordinate
    73.775,                   !- Vertex 91 Xcoordinate
    45.357,                   !- Vertex 91 Ycoordinate
    2.335,                    !- Vertex 91 Zcoordinate
    75.728,                   !- Vertex 92 Xcoordinate
    44.642,                   !- Vertex 92 Ycoordinate
    2.335,                    !- Vertex 92 Zcoordinate
    76.114,                   !- Vertex 93 Xcoordinate
    45.299,                   !- Vertex 93 Ycoordinate
    2.335,                    !- Vertex 93 Zcoordinate
    76.73,                    !- Vertex 94 Xcoordinate
    44.276,                   !- Vertex 94 Ycoordinate
    2.335,                    !- Vertex 94 Zcoordinate
    77.379,                   !- Vertex 95 Xcoordinate
    44.038,                   !- Vertex 95 Ycoordinate
    2.335,                    !- Vertex 95 Zcoordinate
    82.547,                   !- Vertex 96 Xcoordinate
    45.4,                     !- Vertex 96 Ycoordinate
    2.335,                    !- Vertex 96 Zcoordinate
    80.969,                   !- Vertex 97 Xcoordinate
    43.887,                   !- Vertex 97 Ycoordinate
    2.335,                    !- Vertex 97 Zcoordinate
    80.986,                   !- Vertex 98 Xcoordinate
    43.135,                   !- Vertex 98 Ycoordinate
    2.335,                    !- Vertex 98 Zcoordinate
    83.061,                   !- Vertex 99 Xcoordinate
    41.06,                    !- Vertex 99 Ycoordinate
    2.335,                    !- Vertex 99 Zcoordinate
    83.212,                   !- Vertex 100 Xcoordinate
    41.011,                   !- Vertex 100 Ycoordinate
    2.335,                    !- Vertex 100 Zcoordinate
    83.357,                   !- Vertex 101 Xcoordinate
    41.009,                   !- Vertex 101 Ycoordinate
    2.335,                    !- Vertex 101 Zcoordinate
    88.548,                   !- Vertex 102 Xcoordinate
    27.827,                   !- Vertex 102 Ycoordinate
    2.335,                    !- Vertex 102 Zcoordinate
    81.177,                   !- Vertex 103 Xcoordinate
    28.578,                   !- Vertex 103 Ycoordinate
    2.335,                    !- Vertex 103 Zcoordinate
    81.685,                   !- Vertex 104 Xcoordinate
    34.469,                   !- Vertex 104 Ycoordinate
    2.335,                    !- Vertex 104 Zcoordinate
    43.276,                   !- Vertex 105 Xcoordinate
    34.434,                   !- Vertex 105 Ycoordinate
    2.335,                    !- Vertex 105 Zcoordinate
    43.267,                   !- Vertex 106 Xcoordinate
    36.327,                   !- Vertex 106 Ycoordinate
    2.335,                    !- Vertex 106 Zcoordinate
    39.564,                   !- Vertex 107 Xcoordinate
    36.27,                    !- Vertex 107 Ycoordinate
    2.335,                    !- Vertex 107 Zcoordinate
    39.186,                   !- Vertex 108 Xcoordinate
    36.264,                   !- Vertex 108 Ycoordinate
    2.335;                    !- Vertex 108 Zcoordinate

BUILDINGSURFACE:DETAILED,
    F_1,                      !- Name
    Wall,                     !- Surface Type
    C_F,                      !- Construction Name
    Zone_0599100000753816,    !- Zone Name
    ,                         !- Space Name
    Outdoors,                 !- Outside Boundary Condition
    ,                         !- Outside Boundary Condition Object
    SunExposed,               !- Sun Exposure
    WindExposed,              !- Wind Exposure
    0.5,                      !- View Factor to Ground
    4,                        !- Number of Vertices
    86.338,                   !- Vertex 1 Xcoordinate
    2.894,                    !- Vertex 1 Ycoordinate
    15.386,                   !- Vertex 1 Zcoordinate
    86.338,                   !- Vertex 2 Xcoordinate
    2.894,                    !- Vertex 2 Ycoordinate
    2.335,                    !- Vertex 2 Zcoordinate
    90.776,                   !- Vertex 3 Xcoordinate
    3.043,                    !- Vertex 3 Ycoordinate
    2.335,                    !- Vertex 3 Zcoordinate
    90.776,                   !- Vertex 4 Xcoordinate
    3.043,                    !- Vertex 4 Ycoordinate
    15.386;                   !- Vertex 4 Zcoordinate

BUILDINGSURFACE:DETAILED,
    F_2,                      !- Name
    Wall,                     !- Surface Type
    C_F,                      !- Construction Name
    Zone_0599100000753816,    !- Zone Name
    ,                         !- Space Name
    Outdoors,                 !- Outside Boundary Condition
    ,                         !- Outside Boundary Condition Object
    SunExposed,               !- Sun Exposure
    WindExposed,              !- Wind Exposure
    0.5,                      !- View Factor to Ground
    4,                        !- Number of Vertices
    0,                        !- Vertex 1 Xcoordinate
    9.247,                    !- Vertex 1 Ycoordinate
    15.386,                   !- Vertex 1 Zcoordinate
    0,                        !- Vertex 2 Xcoordinate
    9.247,                    !- Vertex 2 Ycoordinate
    2.335,                    !- Vertex 2 Zcoordinate
    0.341,                    !- Vertex 3 Xcoordinate
    0,                        !- Vertex 3 Ycoordinate
    2.335,                    !- Vertex 3 Zcoordinate
    0.341,                    !- Vertex 4 Xcoordinate
    0,                        !- Vertex 4 Ycoordinate
    15.386;                   !- Vertex 4 Zcoordinate

BUILDINGSURFACE:DETAILED,
    F_3,                      !- Name
    Wall,                     !- Surface Type
    C_F,                      !- Construction Name
    Zone_0599100000753816,    !- Zone Name
    ,                         !- Space Name
    Outdoors,                 !- Outside Boundary Condition
    ,                         !- Outside Boundary Condition Object
    SunExposed,               !- Sun Exposure
    WindExposed,              !- Wind Exposure
    0.5,                      !- View Factor to Ground
    4,                        !- Number of Vertices
    84.222,                   !- Vertex 1 Xcoordinate
    2.987,                    !- Vertex 1 Ycoordinate
    15.386,                   !- Vertex 1 Zcoordinate
    84.222,                   !- Vertex 2 Xcoordinate
    2.987,                    !- Vertex 2 Ycoordinate
    2.335,                    !- Vertex 2 Zcoordinate
    86.264,                   !- Vertex 3 Xcoordinate
    2.963,                    !- Vertex 3 Ycoordinate
    2.335,                    !- Vertex 3 Zcoordinate
    86.264,                   !- Vertex 4 Xcoordinate
    2.963,                    !- Vertex 4 Ycoordinate
    15.386;                   !- Vertex 4 Zcoordinate

BUILDINGSURFACE:DETAILED,
    F_4,                      !- Name
    Wall,                     !- Surface Type