!- Windows Line endings 

Version,
    24.2;                     !- Version Identifier

SimulationControl,
    No,                       !- Do Zone Sizing Calculation
    No,                       !- Do System Sizing Calculation
    No,                       !- Do Plant Sizing Calculation
    No,                       !- Run Simulation for Sizing Periods
    Yes,                      !- Run Simulation for Weather File Run Periods
    No,                       !- Do HVAC Sizing Simulation for Sizing Periods
    1;                        !- Maximum Number of HVAC Sizing Simulation Passes

BUILDING,
    Pand.0599100000644404,    !- Name
    0,                        !- North Axis
    City,                     !- Terrain
    0.04,                     !- Loads Convergence Tolerance Value
    0.4,                      !- Temperature Convergence Tolerance Value
    FullExterior,             !- Solar Distribution
    25,                       !- Maximum Number of Warmup Days
    1;                        !- Minimum Number of Warmup Days

Timestep,
    6;                        !- Number of Timesteps per Hour

Site:Location,
    Rotterdam.The.Hague.AP_ZH_NLD Design_Conditions,    !- Name
    51.96,                    !- Latitude
    4.45,                     !- Longitude
    1,                        !- Time Zone
    -4.5;                     !- Elevation

RunPeriod,
    Run Period 1,             !- Name
    1,                        !- Begin Month
    1,                        !- Begin Day of Month
    ,                         !- Begin Year
    12,                       !- End Month
    31,                       !- End Day of Month
    ,                         !- End Year
    ,                         !- Day of Week for Start Day
    Yes,                      !- Use Weather File Holidays and Special Days
    Yes,                      !- Use Weather File Daylight Saving Period
    No,                       !- Apply Weekend Holiday Rule
    Yes,                      !- Use Weather File Rain Indicators
    Yes,                      !- Use Weather File Snow Indicators
    No,                       !- Treat Weather as Actual
    Hour24;                   !- First Hour Interpolation Starting Values

RunPeriodControl:DaylightSavingTime,
    Last Sunday in March,     !- Start Date
    Last Sunday in October;    !- End Date

SITE:GROUNDTEMPERATURE:BUILDINGSURFACE,
    18,                       !- January Ground Temperature
    18,                       !- February Ground Temperature
    18,                       !- March Ground Temperature
    18,                       !- April Ground Temperature
    18,                       !- May Ground Temperature
    18,                       !- June Ground Temperature
    18,                       !- July Ground Temperature
    18,                       !- August Ground Temperature
    18,                       !- September Ground Temperature
    18,                       !- October Ground Temperature
    18,                       !- November Ground Temperature
    18;                       !- December Ground Temperature

SCHEDULETYPELIMITS,
    Temperature,              !- Name
    -100,                     !- Lower Limit Value
    100,                      !- Upper Limit Value
    CONTINUOUS,               !- Numeric Type
    Temperature;              !- Unit Type

SCHEDULETYPELIMITS,
    Fraction,                 !- Name
    0,                        !- Lower Limit Value
    1,                        !- Upper Limit Value
    CONTINUOUS,               !- Numeric Type
    Dimensionless;            !- Unit Type

SCHEDULETYPELIMITS,
    Control Type,             !- Name
    0,                        !- Lower Limit Value
    4,                        !- Upper Limit Value
    DISCRETE,                 !- Numeric Type
    Dimensionless;            !- Unit Type

SCHEDULE:COMPACT,
    HeatingSetpoint_Zone_0599100000644404,    !- Name
    Temperature,              !- Schedule Type Limits Name
    Through: 12/31,           !- Field 1
    For: AllDays,             !- Field 2
    Until: 24:00,             !- Field 3
    21.0;                     !- Field 4

SCHEDULE:COMPACT,
    CoolingSetpoint_Zone_0599100000644404,    !- Name
    Temperature,              !- Schedule Type Limits Name
    Through: 12/31,           !- Field 1
    For: AllDays,             !- Field 2
    Until: 24:00,             !- Field 3
    24.0;                     !- Field 4

SCHEDULE:COMPACT,
    DualSetpointControlType,    !- Name
    Control Type,             !- Schedule Type Limits Name
    Through: 12/31,           !- Field 1
    For: AllDays,             !- Field 2
    Until: 24:00,             !- Field 3
    4;                        !- Field 4

SCHEDULE:COMPACT,
    AlwaysOn,                 !- Name
    Fraction,                 !- Schedule Type Limits Name
    Through: 12/31,           !- Field 1
    For: AllDays,             !- Field 2
    Until: 24:00,             !- Field 3
    1.0;                      !- Field 4

MATERIAL,
    G.TI.1992-2005,           !- Name
    MediumSmooth,             !- Roughness
    0.15,                     !- Thickness
    0.06,                     !- Conductivity
    540,                      !- Density
    1210,                     !- Specific Heat
    0.9,                      !- Thermal Absorptance
    0.7,                      !- Solar Absorptance
    0.7;                      !- Visible Absorptance

MATERIAL,
    F.TI.1992-2005,           !- Name
    Rough,                    !- Roughness
    0.3,                      !- Thickness
    0.12,                     !- Conductivity
    1920,                     !- Density
    840,                      !- Specific Heat
    0.9,                      !- Thermal Absorptance
    0.7,                      !- Solar Absorptance
    0.7;                      !- Visible Absorptance

MATERIAL,
    R.TI.1992-2005,           !- Name
    MediumRough,              !- Roughness
    0.2,                      !- Thickness
    0.08,                     !- Conductivity
    1500,                     !- Density
    1000,                     !- Specific Heat
    0.9,                      !- Thermal Absorptance
    0.7,                      !- Solar Absorptance
    0.7;                      !- Visible Absorptance

WINDOWMATERIAL:SIMPLEGLAZINGSYSTEM,
    W.TI.1992-2005,           !- Name
    1.8,                      !- UFactor
    0.4,                      !- Solar Heat Gain Coefficient
    0.6;                      !- Visible Transmittance

CONSTRUCTION,
    C_G,                      !- Name
    G.TI.1992-2005;           !- Outside Layer

CONSTRUCTION,
    C_F,                      !- Name
    F.TI.1992-2005;           !- Outside Layer

CONSTRUCTION,
    C_R,                      !- Name
    R.TI.1992-2005;           !- Outside Layer

GlobalGeometryRules,
    UpperLeftCorner,          !- Starting Vertex Position
    Counterclockwise,         !- Vertex Entry Direction
    World,                    !- Coordinate System
    World,                    !- Daylighting Reference Point Coordinate System
    Relative;                 !- Rectangular Surface Coordinate System

ZONE,
    Zone_0599100000644404,    !- Name
    0,                        !- Direction of Relative North
    0,                        !- X Origin
    0,                        !- Y Origin
    0,                        !- Z Origin
    1,                        !- Type
    1,                        !- Multiplier
    Autocalculate,            !- Ceiling Height
    Autocalculate,            !- Volume
    autocalculate,            !- Floor Area
    ,                         !- Zone Inside Convection Algorithm
    ,                         !- Zone Outside Convection Algorithm
    Yes;                      !- Part of Total Floor Area

BUILDINGSURFACE:DETAILED,
    G_0,                      !- Name
    Floor,                    !- Surface Type
    C_G,                      !- Construction Name
    Zone_0599100000644404,    !- Zone Name
    ,                         !- Space Name
    Ground,                   !- Outside Boundary Condition
    ,                         !- Outside Boundary Condition Object
    SunExposed,               !- Sun Exposure
    WindExposed,              !- Wind Exposure
    0.5,                      !- View Factor to Ground
    30,                       !- Number of Vertices
    16.146,                   !- Vertex 1 Xcoordinate
    4.325,                    !- Vertex 1 Ycoordinate
    0,                        !- Vertex 1 Zcoordinate
    17.071,                   !- Vertex 2 Xcoordinate
    6.609,                    !- Vertex 2 Ycoordinate
    0,                        !- Vertex 2 Zcoordinate
    16.921,                   !- Vertex 3 Xcoordinate
    6.672,                    !- Vertex 3 Ycoordinate
    0,                        !- Vertex 3 Zcoordinate
    19.56,                    !- Vertex 4 Xcoordinate
    13.1,                     !- Vertex 4 Ycoordinate
    0,                        !- Vertex 4 Zcoordinate
    7.929,                    !- Vertex 5 Xcoordinate
    17.87,                    !- Vertex 5 Ycoordinate
    0,                        !- Vertex 5 Zcoordinate
    7.75,                     !- Vertex 6 Xcoordinate
    18.201,                   !- Vertex 6 Ycoordinate
    0,                        !- Vertex 6 Zcoordinate
    5.129,                    !- Vertex 7 Xcoordinate
    19.291,                   !- Vertex 7 Ycoordinate
    0,                        !- Vertex 7 Zcoordinate
    4.789,                    !- Vertex 8 Xcoordinate
    18.461,                   !- Vertex 8 Ycoordinate
    0,                        !- Vertex 8 Zcoordinate
    0,                        !- Vertex 9 Xcoordinate
    20.451,                   !- Vertex 9 Ycoordinate
    0,                        !- Vertex 9 Zcoordinate
    5.069,                    !- Vertex 10 Xcoordinate
    32.541,                   !- Vertex 10 Ycoordinate
    0,                        !- Vertex 10 Zcoordinate
    7.418,                    !- Vertex 11 Xcoordinate
    31.567,                   !- Vertex 11 Ycoordinate
    0,                        !- Vertex 11 Zcoordinate
    7.451,                    !- Vertex 12 Xcoordinate
    31.385,                   !- Vertex 12 Ycoordinate
    0,                        !- Vertex 12 Zcoordinate
    7.599,                    !- Vertex 13 Xcoordinate
    31.352,                   !- Vertex 13 Ycoordinate
    0,                        !- Vertex 13 Zcoordinate
    7.14,                     !- Vertex 14 Xcoordinate
    30.271,                   !- Vertex 14 Ycoordinate
    0,                        !- Vertex 14 Zcoordinate
    22.57,                    !- Vertex 15 Xcoordinate
    23.791,                   !- Vertex 15 Ycoordinate
    0,                        !- Vertex 15 Zcoordinate
    22.219,                   !- Vertex 16 Xcoordinate
    22.951,                   !- Vertex 16 Ycoordinate
    0,                        !- Vertex 16 Zcoordinate
    23.511,                   !- Vertex 17 Xcoordinate
    22.417,                   !- Vertex 17 Ycoordinate
    0,                        !- Vertex 17 Zcoordinate
    24.31,                    !- Vertex 18 Xcoordinate
    24.331,                   !- Vertex 18 Ycoordinate
    0,                        !- Vertex 18 Zcoordinate
    29.345,                   !- Vertex 19 Xcoordinate
    22.232,                   !- Vertex 19 Ycoordinate
    0,                        !- Vertex 19 Zcoordinate
    29.333,                   !- Vertex 20 Xcoordinate
    22.02,                    !- Vertex 20 Ycoordinate
    0,                        !- Vertex 20 Zcoordinate
    31.951,                   !- Vertex 21 Xcoordinate
    21.145,                   !- Vertex 21 Ycoordinate
    0,                        !- Vertex 21 Zcoordinate
    35.729,                   !- Vertex 22 Xcoordinate
    19.571,                   !- Vertex 22 Ycoordinate
    0,                        !- Vertex 22 Zcoordinate
    34.759,                   !- Vertex 23 Xcoordinate
    17.19,                    !- Vertex 23 Ycoordinate
    0,                        !- Vertex 23 Zcoordinate
    32.764,                   !- Vertex 24 Xcoordinate
    12.388,                   !- Vertex 24 Ycoordinate
    0,                        !- Vertex 24 Zcoordinate
    37.436,                   !- Vertex 25 Xcoordinate
    10.452,                   !- Vertex 25 Ycoordinate
    0,                        !- Vertex 25 Zcoordinate
    33.089,                   !- Vertex 26 Xcoordinate
    0,                        !- Vertex 26 Ycoordinate
    0,                        !- Vertex 26 Zcoordinate
    28.384,                   !- Vertex 27 Xcoordinate
    1.96,                     !- Vertex 27 Ycoordinate
    0,                        !- Vertex 27 Zcoordinate
    28.322,                   !- Vertex 28 Xcoordinate
    1.811,                    !- Vertex 28 Ycoordinate
    0,                        !- Vertex 28 Zcoordinate
    17.24,                    !- Vertex 29 Xcoordinate
    6.421,                    !- Vertex 29 Ycoordinate
    0,                        !- Vertex 29 Zcoordinate
    16.28,                    !- Vertex 30 Xcoordinate
    4.261,                    !- Vertex 30 Ycoordinate
    0;                        !- Vertex 30 Zcoordinate

BUILDINGSURFACE:DETAILED,
    F_1,                      !- Name
    Wall,                     !- Surface Type
    C_F,                      !- Construction Name
    Zone_0599100000644404,    !- Zone Name
    ,                         !- Space Name
    Outdoors,                 !- Outside Boundary Condition
    ,                         !- Outside Boundary Condition Object
    SunExposed,               !- Sun Exposure
    WindExposed,              !- Wind Exposure
    0.5,                      !- View Factor to Ground
    4,                        !- Number of Vertices
    0,                        !- Vertex 1 Xcoordinate
    20.451,                   !- Vertex 1 Ycoordinate
    30.205,                   !- Vertex 1 Zcoordinate
    0,                        !- Vertex 2 Xcoordinate
    20.451,                   !- Vertex 2 Ycoordinate
    0,                        !- Vertex 2 Zcoordinate
    4.789,                    !- Vertex 3 Xcoordinate
    18.461,                   !- Vertex 3 Ycoordinate
    0,                        !- Vertex 3 Zcoordinate
    4.789,                    !- Vertex 4 Xcoordinate
    18.461,                   !- Vertex 4 Ycoordinate
    30.205;                   !- Vertex 4 Zcoordinate

BUILDINGSURFACE:DETAILED,
    F_2,                      !- Name
    Wall,                     !- Surface Type
    C_F,                      !- Construction Name
    Zone_0599100000644404,    !- Zone Name
    ,                         !- Space Name
    Outdoors,                 !- Outside Boundary Condition
    ,                         !- Outside Boundary Condition Object
    SunExposed,               !- Sun Exposure
    WindExposed,              !- Wind Exposure
    0.5,                      !- View Factor to Ground
    4,                        !- Number of Vertices
    4.789,                    !- Vertex 1 Xcoordinate
    18.461,                   !- Vertex 1 Ycoordinate
    30.205,                   !- Vertex 1 Zcoordinate
    4.789,                    !- Vertex 2 Xcoordinate
    18.461,                   !- Vertex 2 Ycoordinate
    0,                        !- Vertex 2 Zcoordinate
    5.129,                    !- Vertex 3 Xcoordinate
    19.291,                   !- Vertex 3 Ycoordinate
    0,                        !- Vertex 3 Zcoordinate
    5.129,                    !- Vertex 4 Xcoordinate
    19.291,                   !- Vertex 4 Ycoordinate
    30.205;                   !- Vertex 4 Zcoordinate

BUILDINGSURFACE:DETAILED,
    F_3,                      !- Name
    Wall,                     !- Surface Type
    C_F,                      !- Construction Name
    Zone_0599100000644404,    !- Zone Name
    ,                         !- Space Name
    Outdoors,                 !- Outside Boundary Condition
    ,                         !- Outside Boundary Condition Object
    SunExposed,               !- Sun Exposure
    WindExposed,              !- Wind Exposure
    0.5,                      !- View Factor to Ground
    4,                        !- Number of Vertices
    22.219,                   !- Vertex 1 Xcoordinate
    22.951,                   !- Vertex 1 Ycoordinate
    30.205,                   !- Vertex 1 Zcoordinate
    22.219,                   !- Vertex 2 Xcoordinate
    22.951,                   !- Vertex 2 Ycoordinate
    0,                        !- Vertex 2 Zcoordinate
    22.57,                    !- Vertex 3 Xcoordinate
    23.791,                   !- Vertex 3 Ycoordinate
    0,                        !- Vertex 3 Zcoordinate
    22.57,                    !- Vertex 4 Xcoordinate
    23.791,                   !- Vertex 4 Ycoordinate
    30.205;                   !- Vertex 4 Zcoordinate

BUILDINGSURFACE:DETAILED,
    F_4,                      !- Name
    Wall,                     !- Surface Type
    C_F,                      !- Construction Name
    Zone_0599100000644404,    !- Zone Name
    ,                         !- Space Name
    Outdoors,                 !- Outside Boundary Condition
    ,                         !- Outside Boundary Condition Object
    SunExposed,               !- Sun Exposure
    WindExposed,              !- Wind Exposure
    0.5,                      !- View Factor to Ground
    4,                        !- Number of Vertices
    23.511,                   !- Vertex 1 Xcoordinate
    22.417,                   !- Vertex 1 Ycoordinate
    30.205,                   !- Vertex 1 Zcoordinate
    23.511,                   !- Vertex 2 Xcoordinate
    22.417,                   !- Vertex 2 Ycoordinate
    0,                        !- Vertex 2 Zcoordinate
    22.219,                   !- Vertex 3 Xcoordinate
    22.951,                   !- Vertex 3 Ycoordinate
    0,                        !- Vertex 3 Zcoordinate
    22.219,                   !- Vertex 4 Xcoordinate
    22.951,                   !- Vertex 4 Ycoordinate
    30.205;                   !- Vertex 4 Zcoordinate

BUILDINGSURFACE:DETAILED,
    F_5,                      !- Name
    Wall,                     !- Surface Type
    C_F,                      !- Construction Name
    Zone_0599100000644404,    !- Zone Name
    ,                         !- Space Name
    Outdoors,                 !- Outside Boundary Condition
    ,                         !- Outside Boundary Condition Object
    SunExposed,               !- Sun Exposure
    WindExposed,              !- Wind Exposure
    0.5,                      !- View Factor to Ground
    4,                        !- Number of Vertices
    5.069,                    !- Vertex 1 Xcoordinate
    32.541,                   !- Vertex 1 Ycoordinate
    30.205,                   !- Vertex 1 Zcoordinate
    5.069,                    !- Vertex 2 Xcoordinate
    32.541,                   !- Vertex 2 Ycoordinate
    0,                        !- Vertex 2 Zcoordinate
    0,                        !- Vertex 3 Xcoordinate
    20.451,                   !- Vertex 3 Ycoordinate
    0,                        !- Vertex 3 Zcoordinate
    0,                        !- Vertex 4 Xcoordinate
    20.451,                   !- Vertex 4 Ycoordinate
    30.205;                   !- Vertex 4 Zcoordinate

BUILDINGSURFACE:DETAILED,
    F_6,                      !- Name
    Wall,                     !- Surface Type
    C_F,                      !- Construction Name
    Zone_0599100000644404,    !- Zone Name
    ,                         !- Space Name
    Outdoors,                 !- Outside Boundary Condition
    ,                         !- Outside Boundary Condition Object
    SunExposed,               !- Sun Exposure
    WindExposed,              !- Wind Exposure
    0.5,                      !- View Factor to Ground
    4,                        !- Number of Vertices
    7.75,                     !- Vertex 1 Xcoordinate
    18.201,                   !- Vertex 1 Ycoordinate
    30.205,                   !- Vertex 1 Zcoordinate
    7.75,                     !- Vertex 2 Xcoordinate
    18.201,                   !- Vertex 2 Ycoordinate
    0,                        !- Vertex 2 Zcoordinate
    7.929,                    !- Vertex 3 Xcoordinate
    17.87,                    !- Vertex 3 Ycoordinate
    0,                        !- Vertex 3 Zcoordinate
    7.929,                    !- Vertex 4 Xcoordinate
    17.87,                    !- Vertex 4 Ycoordinate
    30.205;                   !- Vertex 4 Zcoordinate

BUILDINGSURFACE:DETAILED,
    F_7,                      !- Name
    Wall,                     !- Surface Type
    C_F,                      !- Construction Name
    Zone_0599100000644404,    !- Zone Name
    ,                         !- Space Name
    Outdoors,                 !- Outside Boundary Condition
    ,                         !- Outside Boundary Condition Object
    SunExposed,               !- Sun Exposure
    WindExposed,              !- Wind Exposure
    0.5,                      !- View Factor to Ground
    4,                        !- Number of Vertices
    16.146,                   !- Vertex 1 Xcoordinate
    4.325,                    !- Vertex 1 Ycoordinate
    30.205,                   !- Vertex 1 Zcoordinate
    16.146,                   !- Vertex 2 Xcoordinate
    4.325,                    !- Vertex 2 Ycoordinate
    0,                        !- Vertex 2 Zcoordinate
    16.28,                    !- Vertex 3 Xcoordinate
    4.261,                    !- Vertex 3 Ycoordinate
    0,                        !- Vertex 3 Zcoordinate
    16.28,                    !- Vertex 4 Xcoordinate
    4.261,                    !- Vertex 4 Ycoordinate
    30.205;                   !- Vertex 4 Zcoordinate

BUILDINGSURFACE:DETAILED,
    F_8,                      !- Name
    Wall,                     !- Surface Type
    C_F,                      !- Construction Name
    Zone_0599100000644404,    !- Zone Name
    ,                         !- Space Name
    Outdoors,                 !- Outside Boundary Condition
    ,                         !- Outside Boundary Condition Object
    SunExposed,               !- Sun Exposure
    WindExposed,              !- Wind Exposure
    0.5,                      !- View Factor to Ground
    4,                        !- Number of Vertices
    5.129,                    !- Vertex 1 Xcoordinate
    19.291,                   !- Vertex 1 Ycoordinate
    30.205,                   !- Vertex 1 Zcoordinate
    5.129,                    !- Vertex 2 Xcoordinate
    19.291,                   !- Vertex 2 Ycoordinate
    0,                        !- Vertex 2 Zcoordinate
    7.75,                     !- Vertex 3 Xcoordinate
    18.201,                   !- Vertex 3 Ycoordinate
    0,                        !- Vertex 3 Zcoordinate
    7.75,                     !- Vertex 4 Xcoordinate
    18.201,                   !- Vertex 4 Ycoordinate
    30.205;                   !- Vertex 4 Zcoordinate

BUILDINGSURFACE:DETAILED,
    F_9,                      !- Name
    Wall,                     !- Surface Type
    C_F,                      !- Construction Name
    Zone_0599100000644404,    !- Zone Name
    ,                         !- Space Name
    Outdoors,                 !- Outside Boundary Condition
    ,                         !- Outside Boundary Condition Object
    SunExposed,               !- Sun Exposure
    WindExposed,              !- Wind Exposure
    0.5,                      !- View Factor to Ground
    4,                        !- Number of Vertices
    7.929,                    !- Vertex 1 Xcoordinate
    17.87,                    !- Vertex 1 Ycoordinate
    30.205,                   !- Vertex 1 Zcoordinate
    7.929,                    !- Vertex 2 Xcoordinate
    17.87,                    !- Vertex 2 Ycoordinate
    0,                        !- Vertex 2 Zcoordinate
    19.56,                    !- Vertex 3 Xcoordinate
    13.1,                     !- Vertex 3 Ycoordinate
    0,                        !- Vertex 3 Zcoordinate
    19.56,                    !- Vertex 4 Xcoordinate
    13.1,                     !- Vertex 4 Ycoordinate
    30.205;                   !- Vertex 4 Zcoordinate

BUILDINGSURFACE:DETAILED,
    F_10,                     !- Name
    Wall,                     !- Surface Type
    C_F,                      !- Construction Name
    Zone_0599100000644404,    !- Zone Name
    ,                         !- Space Name
    Outdoors,                 !- Outside Boundary Condition
    ,                         !- Outside Boundary Condition Object
    SunExposed,               !- Sun Exposure
    WindExposed,              !- Wind Exposure
    0.5,                      !- View Factor to Ground
    4,                        !- Number of Vertices
    17.24,                    !- Vertex 1 Xcoordinate
    6.421,                    !- Vertex 1 Ycoordinate
    30.205,                   !- Vertex 1 Zcoordinate
    17.24,                    !- Vertex 2 Xcoordinate
    6.421,                    !- Vertex 2 Ycoordinate
    0,                        !- Vertex 2 Zcoordinate
    28.322,                   !- Vertex 3 Xcoordinate
    1.811,                    !- Vertex 3 Ycoordinate
    0,                        !- Vertex 3 Zcoordinate
    28.322,                   !- Vertex 4 Xcoordinate
    1.811,                    !- Vertex 4 Ycoordinate
    30.205;                   !- Vertex 4 Zcoordinate

BUILDINGSURFACE:DETAILED,
    F_11,                     !- Name
    Wall,                     !- Surface Type
    C_F,                      !- Construction Name
    Zone_0599100000644404,    !- Zone Name
    ,                         !- Space Name
    Outdoors,                 !- Outside Boundary Condition
    ,                         !- Outside Boundary Condition Object
    SunExposed,               !- Sun Exposure
    WindExposed,              !- Wind Exposure
    0.5,                      !- View Factor to Ground
    4,                        !- Number of Vertices
    16.28,                    !- Vertex 1 Xcoordinate
    4.261,                    !- Vertex 1 Ycoordinate
    30.205,                   !- Vertex 1 Zcoordinate
    16.28,                    !- Vertex 2 Xcoordinate
    4.261,                    !- Vertex 2 Ycoordinate
    0,                        !- Vertex 2 Zcoordinate
    17.24,                    !- Vertex 3 Xcoordinate
    6.421,                    !- Vertex 3 Ycoordinate
    0,                        !- Vertex 3 Zcoordinate
    17.24,                    !- Vertex 4 Xcoordinate
    6.421,                    !- Vertex 4 Ycoordinate
    30.205;                   !- Vertex 4 Zcoordinate

BUILDINGSURFACE:DETAILED,
    F_12,                     !- Name
    Wall,                     !- Surface Type
    C_F,                      !- Construction Name
    Zone_0599100000644404,    !- Zone Name
    ,                         !- Space Name
    Outdoors,                 !- Outside Boundary Condition
    ,                         !- Outside Boundary Condition Object
    SunExposed,               !- Sun Exposure
    WindExposed,              !- Wind Exposure
    0.5,                      !- View Factor to Ground
    4,                        !- Number of Vertices
    28.322,                   !- Vertex 1 Xcoordinate
    1.811,                    !- Vertex 1 Ycoordinate
    30.205,                   !- Vertex 1 Zcoordinate
    28.322,                   !- Vertex 2 Xcoordinate
    1.811,                    !- Vertex 2 Ycoordinate
    0,                        !- Vertex 2 Zcoordinate
    28.384,                   !- Vertex 3 Xcoordinate
    1.96,                     !- Vertex 3 Ycoordinate
    0,                        !- Vertex 3 Zcoordinate
    28.384,                   !- Vertex 4 Xcoordinate
    1.96,                     !- Vertex 4 Ycoordinate
    30.205;                   !- Vertex 4 Zcoordinate

BUILDINGSURFACE:DETAILED,
    F_13,                     !- Name
    Wall,                     !- Surface Type
    C_F,                      !- Construction Name
    Zone_0599100000644404,    !- Zone Name
    ,                         !- Space Name
    Outdoors,                 !- Outside Boundary Condition
    ,                         !- Outside Boundary Condition Object
    SunExposed,               !- Sun Exposure
    WindExposed,              !- Wind Exposure
    0.5,                      !- View Factor to Ground
    4,                        !- Number of Vertices
    28.384,                   !- Vertex 1 Xcoordinate
    1.96,                     !- Vertex 1 Ycoordinate
    30.205,                   !- Vertex 1 Zcoordinate
    28.384,                   !- Vertex 2 Xcoordinate
    1.96,                     !- Vertex 2 Ycoordinate
    0,                        !- Vertex 2 Zcoordinate
    33.089,                   !- Vertex 3 Xcoordinate
    0,                        !- Vertex 3 Ycoordinate
    0,                        !- Vertex 3 Zcoordinate
    33.089,                   !- Vertex 4 Xcoordinate
    0,                        !- Vertex 4 Ycoordinate
    30.205;                   !- Vertex 4 Zcoordinate

BUILDINGSURFACE:DETAILED,
    F_14,                     !- Name
    Wall,                     !- Surface Type
    C_F,                      !- Construction Name
    Zone_0599100000644404,    !- Zone Name
    ,                         !- Space Name
    Outdoors,                 !- Outside Boundary Condition
    ,                         !- Outside Boundary Condition Object
    SunExposed,               !- Sun Exposure
    WindExposed,              !- Wind Exposure
    0.5,                      !- View Factor to Ground
    4,                        !- Number of Vertices
    33.089,                   !- Vertex 1 Xcoordinate
    0,                        !- Vertex 1 Ycoordinate
    30.205,                   !- Vertex 1 Zcoordinate
    33.089,                   !- Vertex 2 Xcoordinate