!- Windows Line endings 

Version,
    24.2;                     !- Version Identifier

SimulationControl,
    No,                       !- Do Zone Sizing Calculation
    No,                       !- Do System Sizing Calculation
    No,                       !- Do Plant Sizing Calculation
    No,                       !- Run Simulation for Sizing Periods
    Yes,                      !- Run Simulation for Weather File Run Periods
    No,                       !- Do HVAC Sizing Simulation for Sizing Periods
    1;                        !- Maximum Number of HVAC Sizing Simulation Passes

BUILDING,
    Pand.0599100100018469,    !- Name
    0,                        !- North Axis
    City,                     !- Terrain
    0.04,                     !- Loads Convergence Tolerance Value
    0.4,                      !- Temperature Convergence Tolerance Value
    FullExterior,             !- Solar Distribution
    25,                       !- Maximum Number of Warmup Days
    1;                        !- Minimum Number of Warmup Days

Timestep,
    6;                        !- Number of Timesteps per Hour

Site:Location,
    Rotterdam.The.Hague.AP_ZH_NLD Design_Conditions,    !- Name
    51.96,                    !- Latitude
    4.45,                     !- Longitude
    1,                        !- Time Zone
    -4.5;                     !- Elevation

RunPeriod,
    Run Period 1,             !- Name
    1,                        !- Begin Month
    1,                        !- Begin Day of Month
    ,                         !- Begin Year
    12,                       !- End Month
    31,                       !- End Day of Month
    ,                         !- End Year
    ,                         !- Day of Week for Start Day
    Yes,                      !- Use Weather File Holidays and Special Days
    Yes,                      !- Use Weather File Daylight Saving Period
    No,                       !- Apply Weekend Holiday Rule
    Yes,                      !- Use Weather File Rain Indicators
    Yes,                      !- Use Weather File Snow Indicators
    No,                       !- Treat Weather as Actual
    Hour24;                   !- First Hour Interpolation Starting Values

RunPeriodControl:DaylightSavingTime,
    Last Sunday in March,     !- Start Date
    Last Sunday in October;    !- End Date

SITE:GROUNDTEMPERATURE:BUILDINGSURFACE,
    18,                       !- January Ground Temperature
    18,                       !- February Ground Temperature
    18,                       !- March Ground Temperature
    18,                       !- April Ground Temperature
    18,                       !- May Ground Temperature
    18,                       !- June Ground Temperature
    18,                       !- July Ground Temperature
    18,                       !- August Ground Temperature
    18,                       !- September Ground Temperature
    18,                       !- October Ground Temperature
    18,                       !- November Ground Temperature
    18;                       !- December Ground Temperature

SCHEDULETYPELIMITS,
    Temperature,              !- Name
    -100,                     !- Lower Limit Value
    100,                      !- Upper Limit Value
    CONTINUOUS,               !- Numeric Type
    Temperature;              !- Unit Type

SCHEDULETYPELIMITS,
    Fraction,                 !- Name
    0,                        !- Lower Limit Value
    1,                        !- Upper Limit Value
    CONTINUOUS,               !- Numeric Type
    Dimensionless;            !- Unit Type

SCHEDULETYPELIMITS,
    Control Type,             !- Name
    0,                        !- Lower Limit Value
    4,                        !- Upper Limit Value
    DISCRETE,                 !- Numeric Type
    Dimensionless;            !- Unit Type

SCHEDULE:COMPACT,
    HeatingSetpoint_Zone_0599100100018469,    !- Name
    Temperature,              !- Schedule Type Limits Name
    Through: 12/31,           !- Field 1
    For: AllDays,             !- Field 2
    Until: 24:00,             !- Field 3
    21.0;                     !- Field 4

SCHEDULE:COMPACT,
    CoolingSetpoint_Zone_0599100100018469,    !- Name
    Temperature,              !- Schedule Type Limits Name
    Through: 12/31,           !- Field 1
    For: AllDays,             !- Field 2
    Until: 24:00,             !- Field 3
    24.0;                     !- Field 4

SCHEDULE:COMPACT,
    DualSetpointControlType,    !- Name
    Control Type,             !- Schedule Type Limits Name
    Through: 12/31,           !- Field 1
    For: AllDays,             !- Field 2
    Until: 24:00,             !- Field 3
    4;                        !- Field 4

SCHEDULE:COMPACT,
    AlwaysOn,                 !- Name
    Fraction,                 !- Schedule Type Limits Name
    Through: 12/31,           !- Field 1
    For: AllDays,             !- Field 2
    Until: 24:00,             !- Field 3
    1.0;                      !- Field 4

MATERIAL,
    G.TI.2015-2018,           !- Name
    MediumSmooth,             !- Roughness
    0.15,                     !- Thickness
    4.285714e-02,             !- Conductivity
    540,                      !- Density
    1210,                     !- Specific Heat
    0.9,                      !- Thermal Absorptance
    0.7,                      !- Solar Absorptance
    0.7;                      !- Visible Absorptance

MATERIAL,
    F.TI.2015-2018,           !- Name
    Rough,                    !- Roughness
    0.3,                      !- Thickness
    6.666667e-02,             !- Conductivity
    1920,                     !- Density
    840,                      !- Specific Heat
    0.9,                      !- Thermal Absorptance
    0.7,                      !- Solar Absorptance
    0.7;                      !- Visible Absorptance

MATERIAL,
    R.TI.2015-2018,           !- Name
    MediumRough,              !- Roughness
    0.2,                      !- Thickness
    3.333333e-02,             !- Conductivity
    1500,                     !- Density
    1000,                     !- Specific Heat
    0.9,                      !- Thermal Absorptance
    0.7,                      !- Solar Absorptance
    0.7;                      !- Visible Absorptance

WINDOWMATERIAL:SIMPLEGLAZINGSYSTEM,
    W.TI.2015-2018,           !- Name
    1.8,                      !- UFactor
    0.4,                      !- Solar Heat Gain Coefficient
    0.6;                      !- Visible Transmittance

CONSTRUCTION,
    C_G,                      !- Name
    G.TI.2015-2018;           !- Outside Layer

CONSTRUCTION,
    C_F,                      !- Name
    F.TI.2015-2018;           !- Outside Layer

CONSTRUCTION,
    C_R,                      !- Name
    R.TI.2015-2018;           !- Outside Layer

GlobalGeometryRules,
    UpperLeftCorner,          !- Starting Vertex Position
    Counterclockwise,         !- Vertex Entry Direction
    World,                    !- Coordinate System
    World,                    !- Daylighting Reference Point Coordinate System
    Relative;                 !- Rectangular Surface Coordinate System

ZONE,
    Zone_0599100100018469,    !- Name
    0,                        !- Direction of Relative North
    0,                        !- X Origin
    0,                        !- Y Origin
    0,                        !- Z Origin
    1,                        !- Type
    1,                        !- Multiplier
    Autocalculate,            !- Ceiling Height
    Autocalculate,            !- Volume
    autocalculate,            !- Floor Area
    ,                         !- Zone Inside Convection Algorithm
    ,                         !- Zone Outside Convection Algorithm
    Yes;                      !- Part of Total Floor Area

BUILDINGSURFACE:DETAILED,
    G_0,                      !- Name
    Floor,                    !- Surface Type
    C_G,                      !- Construction Name
    Zone_0599100100018469,    !- Zone Name
    ,                         !- Space Name
    Ground,                   !- Outside Boundary Condition
    ,                         !- Outside Boundary Condition Object
    SunExposed,               !- Sun Exposure
    WindExposed,              !- Wind Exposure
    0.5,                      !- View Factor to Ground
    28,                       !- Number of Vertices
    67.743,                   !- Vertex 1 Xcoordinate
    136.207,                  !- Vertex 1 Ycoordinate
    0,                        !- Vertex 1 Zcoordinate
    67.973,                   !- Vertex 2 Xcoordinate
    136.077,                  !- Vertex 2 Ycoordinate
    0,                        !- Vertex 2 Zcoordinate
    41.373,                   !- Vertex 3 Xcoordinate
    69.767,                   !- Vertex 3 Ycoordinate
    0,                        !- Vertex 3 Zcoordinate
    36.339,                   !- Vertex 4 Xcoordinate
    71.777,                   !- Vertex 4 Ycoordinate
    0,                        !- Vertex 4 Zcoordinate
    34.954,                   !- Vertex 5 Xcoordinate
    68.306,                   !- Vertex 5 Ycoordinate
    0,                        !- Vertex 5 Zcoordinate
    39.954,                   !- Vertex 6 Xcoordinate
    66.272,                   !- Vertex 6 Ycoordinate
    0,                        !- Vertex 6 Zcoordinate
    13.373,                   !- Vertex 7 Xcoordinate
    0,                        !- Vertex 7 Ycoordinate
    0,                        !- Vertex 7 Zcoordinate
    13.304,                   !- Vertex 8 Xcoordinate
    0.079,                    !- Vertex 8 Ycoordinate
    0,                        !- Vertex 8 Zcoordinate
    3.183,                    !- Vertex 9 Xcoordinate
    4.361,                    !- Vertex 9 Ycoordinate
    0,                        !- Vertex 9 Zcoordinate
    3.091,                    !- Vertex 10 Xcoordinate
    4.129,                    !- Vertex 10 Ycoordinate
    0,                        !- Vertex 10 Zcoordinate
    0.761,                    !- Vertex 11 Xcoordinate
    5.064,                    !- Vertex 11 Ycoordinate
    0,                        !- Vertex 11 Zcoordinate
    1.059,                    !- Vertex 12 Xcoordinate
    5.699,                    !- Vertex 12 Ycoordinate
    0,                        !- Vertex 12 Zcoordinate
    1.171,                    !- Vertex 13 Xcoordinate
    5.654,                    !- Vertex 13 Ycoordinate
    0,                        !- Vertex 13 Zcoordinate
    27.274,                   !- Vertex 14 Xcoordinate
    70.666,                   !- Vertex 14 Ycoordinate
    0,                        !- Vertex 14 Zcoordinate
    26.366,                   !- Vertex 15 Xcoordinate
    71.035,                   !- Vertex 15 Ycoordinate
    0,                        !- Vertex 15 Zcoordinate
    26.629,                   !- Vertex 16 Xcoordinate
    71.681,                   !- Vertex 16 Ycoordinate
    0,                        !- Vertex 16 Zcoordinate
    27.484,                   !- Vertex 17 Xcoordinate
    71.342,                   !- Vertex 17 Ycoordinate
    0,                        !- Vertex 17 Zcoordinate
    28.892,                   !- Vertex 18 Xcoordinate
    74.752,                   !- Vertex 18 Ycoordinate
    0,                        !- Vertex 18 Zcoordinate
    27.987,                   !- Vertex 19 Xcoordinate
    75.129,                   !- Vertex 19 Ycoordinate
    0,                        !- Vertex 19 Zcoordinate
    28.256,                   !- Vertex 20 Xcoordinate
    75.774,                   !- Vertex 20 Ycoordinate
    0,                        !- Vertex 20 Zcoordinate
    29.161,                   !- Vertex 21 Xcoordinate
    75.397,                   !- Vertex 21 Ycoordinate
    0,                        !- Vertex 21 Zcoordinate
    55.245,                   !- Vertex 22 Xcoordinate
    140.384,                  !- Vertex 22 Ycoordinate
    0,                        !- Vertex 22 Zcoordinate
    54.335,                   !- Vertex 23 Xcoordinate
    140.749,                  !- Vertex 23 Ycoordinate
    0,                        !- Vertex 23 Zcoordinate
    54.511,                   !- Vertex 24 Xcoordinate
    141.187,                  !- Vertex 24 Ycoordinate
    0,                        !- Vertex 24 Zcoordinate
    42.783,                   !- Vertex 25 Xcoordinate
    145.871,                  !- Vertex 25 Ycoordinate
    0,                        !- Vertex 25 Zcoordinate
    44.77,                    !- Vertex 26 Xcoordinate
    150.819,                  !- Vertex 26 Ycoordinate
    0,                        !- Vertex 26 Zcoordinate
    68.032,                   !- Vertex 27 Xcoordinate
    141.493,                  !- Vertex 27 Ycoordinate
    0,                        !- Vertex 27 Zcoordinate
    66.159,                   !- Vertex 28 Xcoordinate
    136.843,                  !- Vertex 28 Ycoordinate
    0;                        !- Vertex 28 Zcoordinate

BUILDINGSURFACE:DETAILED,
    F_1,                      !- Name
    Wall,                     !- Surface Type
    C_F,                      !- Construction Name
    Zone_0599100100018469,    !- Zone Name
    ,                         !- Space Name
    Outdoors,                 !- Outside Boundary Condition
    ,                         !- Outside Boundary Condition Object
    SunExposed,               !- Sun Exposure
    WindExposed,              !- Wind Exposure
    0.5,                      !- View Factor to Ground
    4,                        !- Number of Vertices
    68.032,                   !- Vertex 1 Xcoordinate
    141.493,                  !- Vertex 1 Ycoordinate
    10.416,                   !- Vertex 1 Zcoordinate
    68.032,                   !- Vertex 2 Xcoordinate
    141.493,                  !- Vertex 2 Ycoordinate
    0,                        !- Vertex 2 Zcoordinate
    44.77,                    !- Vertex 3 Xcoordinate
    150.819,                  !- Vertex 3 Ycoordinate
    0,                        !- Vertex 3 Zcoordinate
    44.77,                    !- Vertex 4 Xcoordinate
    150.819,                  !- Vertex 4 Ycoordinate
    10.416;                   !- Vertex 4 Zcoordinate

BUILDINGSURFACE:DETAILED,
    F_2,                      !- Name
    Wall,                     !- Surface Type
    C_F,                      !- Construction Name
    Zone_0599100100018469,    !- Zone Name
    ,                         !- Space Name
    Outdoors,                 !- Outside Boundary Condition
    ,                         !- Outside Boundary Condition Object
    SunExposed,               !- Sun Exposure
    WindExposed,              !- Wind Exposure
    0.5,                      !- View Factor to Ground
    4,                        !- Number of Vertices
    36.339,                   !- Vertex 1 Xcoordinate
    71.777,                   !- Vertex 1 Ycoordinate
    10.416,                   !- Vertex 1 Zcoordinate
    36.339,                   !- Vertex 2 Xcoordinate
    71.777,                   !- Vertex 2 Ycoordinate
    0,                        !- Vertex 2 Zcoordinate
    41.373,                   !- Vertex 3 Xcoordinate
    69.767,                   !- Vertex 3 Ycoordinate
    0,                        !- Vertex 3 Zcoordinate
    41.373,                   !- Vertex 4 Xcoordinate
    69.767,                   !- Vertex 4 Ycoordinate
    10.416;                   !- Vertex 4 Zcoordinate

BUILDINGSURFACE:DETAILED,
    F_3,                      !- Name
    Wall,                     !- Surface Type
    C_F,                      !- Construction Name
    Zone_0599100100018469,    !- Zone Name
    ,                         !- Space Name
    Outdoors,                 !- Outside Boundary Condition
    ,                         !- Outside Boundary Condition Object
    SunExposed,               !- Sun Exposure
    WindExposed,              !- Wind Exposure
    0.5,                      !- View Factor to Ground
    4,                        !- Number of Vertices
    13.373,                   !- Vertex 1 Xcoordinate
    0,                        !- Vertex 1 Ycoordinate
    10.416,                   !- Vertex 1 Zcoordinate
    13.373,                   !- Vertex 2 Xcoordinate
    0,                        !- Vertex 2 Ycoordinate
    0,                        !- Vertex 2 Zcoordinate
    39.954,                   !- Vertex 3 Xcoordinate
    66.272,                   !- Vertex 3 Ycoordinate
    0,                        !- Vertex 3 Zcoordinate
    39.954,                   !- Vertex 4 Xcoordinate
    66.272,                   !- Vertex 4 Ycoordinate
    10.416;                   !- Vertex 4 Zcoordinate

BUILDINGSURFACE:DETAILED,
    F_4,                      !- Name
    Wall,                     !- Surface Type
    C_F,                      !- Construction Name
    Zone_0599100100018469,    !- Zone Name
    ,                         !- Space Name
    Outdoors,                 !- Outside Boundary Condition
    ,                         !- Outside Boundary Condition Object
    SunExposed,               !- Sun Exposure
    WindExposed,              !- Wind Exposure
    0.5,                      !- View Factor to Ground
    4,                        !- Number of Vertices
    29.161,                   !- Vertex 1 Xcoordinate
    75.397,                   !- Vertex 1 Ycoordinate
    10.416,                   !- Vertex 1 Zcoordinate
    29.161,                   !- Vertex 2 Xcoordinate
    75.397,                   !- Vertex 2 Ycoordinate
    0,                        !- Vertex 2 Zcoordinate
    28.256,                   !- Vertex 3 Xcoordinate
    75.774,                   !- Vertex 3 Ycoordinate
    0,                        !- Vertex 3 Zcoordinate
    28.256,                   !- Vertex 4 Xcoordinate
    75.774,                   !- Vertex 4 Ycoordinate
    10.416;                   !- Vertex 4 Zcoordinate

BUILDINGSURFACE:DETAILED,
    F_5,                      !- Name
    Wall,                     !- Surface Type
    C_F,                      !- Construction Name
    Zone_0599100100018469,    !- Zone Name
    ,                         !- Space Name
    Outdoors,                 !- Outside Boundary Condition
    ,                         !- Outside Boundary Condition Object
    SunExposed,               !- Sun Exposure
    WindExposed,              !- Wind Exposure
    0.5,                      !- View Factor to Ground
    4,                        !- Number of Vertices
    55.245,                   !- Vertex 1 Xcoordinate
    140.384,                  !- Vertex 1 Ycoordinate
    10.416,                   !- Vertex 1 Zcoordinate
    55.245,                   !- Vertex 2 Xcoordinate
    140.384,                  !- Vertex 2 Ycoordinate
    0,                        !- Vertex 2 Zcoordinate
    29.161,                   !- Vertex 3 Xcoordinate
    75.397,                   !- Vertex 3 Ycoordinate
    0,                        !- Vertex 3 Zcoordinate
    29.161,                   !- Vertex 4 Xcoordinate
    75.397,                   !- Vertex 4 Ycoordinate
    10.416;                   !- Vertex 4 Zcoordinate

BUILDINGSURFACE:DETAILED,
    F_6,                      !- Name
    Wall,                     !- Surface Type
    C_F,                      !- Construction Name
    Zone_0599100100018469,    !- Zone Name
    ,                         !- Space Name
    Outdoors,                 !- Outside Boundary Condition
    ,                         !- Outside Boundary Condition Object
    SunExposed,               !- Sun Exposure
    WindExposed,              !- Wind Exposure
    0.5,                      !- View Factor to Ground
    4,                        !- Number of Vertices
    44.77,                    !- Vertex 1 Xcoordinate
    150.819,                  !- Vertex 1 Ycoordinate
    10.416,                   !- Vertex 1 Zcoordinate
    44.77,                    !- Vertex 2 Xcoordinate
    150.819,                  !- Vertex 2 Ycoordinate
    0,                        !- Vertex 2 Zcoordinate
    42.783,                   !- Vertex 3 Xcoordinate
    145.871,                  !- Vertex 3 Ycoordinate
    0,                        !- Vertex 3 Zcoordinate
    42.783,                   !- Vertex 4 Xcoordinate
    145.871,                  !- Vertex 4 Ycoordinate
    10.416;                   !- Vertex 4 Zcoordinate

BUILDINGSURFACE:DETAILED,
    F_7,                      !- Name
    Wall,                     !- Surface Type
    C_F,                      !- Construction Name
    Zone_0599100100018469,    !- Zone Name
    ,                         !- Space Name
    Outdoors,                 !- Outside Boundary Condition
    ,                         !- Outside Boundary Condition Object
    SunExposed,               !- Sun Exposure
    WindExposed,              !- Wind Exposure
    0.5,                      !- View Factor to Ground
    4,                        !- Number of Vertices
    42.783,                   !- Vertex 1 Xcoordinate
    145.871,                  !- Vertex 1 Ycoordinate
    10.416,                   !- Vertex 1 Zcoordinate
    42.783,                   !- Vertex 2 Xcoordinate
    145.871,                  !- Vertex 2 Ycoordinate
    0,                        !- Vertex 2 Zcoordinate
    54.511,                   !- Vertex 3 Xcoordinate
    141.187,                  !- Vertex 3 Ycoordinate
    0,                        !- Vertex 3 Zcoordinate
    54.511,                   !- Vertex 4 Xcoordinate
    141.187,                  !- Vertex 4 Ycoordinate
    10.416;                   !- Vertex 4 Zcoordinate

BUILDINGSURFACE:DETAILED,
    F_8,                      !- Name
    Wall,                     !- Surface Type
    C_F,                      !- Construction Name
    Zone_0599100100018469,    !- Zone Name
    ,                         !- Space Name
    Outdoors,                 !- Outside Boundary Condition
    ,                         !- Outside Boundary Condition Object
    SunExposed,               !- Sun Exposure
    WindExposed,              !- Wind Exposure
    0.5,                      !- View Factor to Ground
    4,                        !- Number of Vertices
    54.511,                   !- Vertex 1 Xcoordinate
    141.187,                  !- Vertex 1 Ycoordinate
    10.416,                   !- Vertex 1 Zcoordinate
    54.511,                   !- Vertex 2 Xcoordinate
    141.187,                  !- Vertex 2 Ycoordinate
    0,                        !- Vertex 2 Zcoordinate
    54.335,                   !- Vertex 3 Xcoordinate
    140.749,                  !- Vertex 3 Ycoordinate
    0,                        !- Vertex 3 Zcoordinate
    54.335,                   !- Vertex 4 Xcoordinate
    140.749,                  !- Vertex 4 Ycoordinate
    10.416;                   !- Vertex 4 Zcoordinate

BUILDINGSURFACE:DETAILED,
    F_9,                      !- Name
    Wall,                     !- Surface Type
    C_F,                      !- Construction Name
    Zone_0599100100018469,    !- Zone Name
    ,                         !- Space Name
    Outdoors,                 !- Outside Boundary Condition
    ,                         !- Outside Boundary Condition Object
    SunExposed,               !- Sun Exposure
    WindExposed,              !- Wind Exposure
    0.5,                      !- View Factor to Ground
    4,                        !- Number of Vertices
    54.335,                   !- Vertex 1 Xcoordinate
    140.749,                  !- Vertex 1 Ycoordinate
    10.416,                   !- Vertex 1 Zcoordinate
    54.335,                   !- Vertex 2 Xcoordinate
    140.749,                  !- Vertex 2 Ycoordinate
    0,                        !- Vertex 2 Zcoordinate
    55.245,                   !- Vertex 3 Xcoordinate
    140.384,                  !- Vertex 3 Ycoordinate
    0,                        !- Vertex 3 Zcoordinate
    55.245,                   !- Vertex 4 Xcoordinate
    140.384,                  !- Vertex 4 Ycoordinate
    10.416;                   !- Vertex 4 Zcoordinate

BUILDINGSURFACE:DETAILED,
    F_10,                     !- Name
    Wall,                     !- Surface Type
    C_F,                      !- Construction Name
    Zone_0599100100018469,    !- Zone Name
    ,                         !- Space Name
    Outdoors,                 !- Outside Boundary Condition
    ,                         !- Outside Boundary Condition Object
    SunExposed,               !- Sun Exposure
    WindExposed,              !- Wind Exposure
    0.5,                      !- View Factor to Ground
    4,                        !- Number of Vertices
    66.159,                   !- Vertex 1 Xcoordinate
    136.843,                  !- Vertex 1 Ycoordinate
    10.416,                   !- Vertex 1 Zcoordinate
    66.159,                   !- Vertex 2 Xcoordinate
    136.843,                  !- Vertex 2 Ycoordinate
    0,                        !- Vertex 2 Zcoordinate
    68.032,                   !- Vertex 3 Xcoordinate
    141.493,                  !- Vertex 3 Ycoordinate
    0,                        !- Vertex 3 Zcoordinate
    68.032,                   !- Vertex 4 Xcoordinate
    141.493,                  !- Vertex 4 Ycoordinate
    10.416;                   !- Vertex 4 Zcoordinate

BUILDINGSURFACE:DETAILED,
    F_11,                     !- Name
    Wall,                     !- Surface Type
    C_F,                      !- Construction Name
    Zone_0599100100018469,    !- Zone Name
    ,                         !- Space Name
    Outdoors,                 !- Outside Boundary Condition
    ,                         !- Outside Boundary Condition Object
    SunExposed,               !- Sun Exposure
    WindExposed,              !- Wind Exposure
    0.5,                      !- View Factor to Ground
    4,                        !- Number of Vertices
    28.256,                   !- Vertex 1 Xcoordinate
    75.774,                   !- Vertex 1 Ycoordinate
    10.416,                   !- Vertex 1 Zcoordinate
    28.256,                   !- Vertex 2 Xcoordinate
    75.774,                   !- Vertex 2 Ycoordinate
    0,                        !- Vertex 2 Zcoordinate
    27.987,                   !- Vertex 3 Xcoordinate
    75.129,                   !- Vertex 3 Ycoordinate
    0,                        !- Vertex 3 Zcoordinate
    27.987,                   !- Vertex 4 Xcoordinate
    75.129,                   !- Vertex 4 Ycoordinate
    10.416;                   !- Vertex 4 Zcoordinate

BUILDINGSURFACE:DETAILED,
    F_12,                     !- Name
    Wall,                     !- Surface Type
    C_F,                      !- Construction Name
    Zone_0599100100018469,    !- Zone Name
    ,                         !- Space Name
    Outdoors,                 !- Outside Boundary Condition
    ,                         !- Outside Boundary Condition Object
    SunExposed,               !- Sun Exposure
    WindExposed,              !- Wind Exposure
    0.5,                      !- View Factor to Ground
    4,                        !- Number of Vertices
    27.987,                   !- Vertex 1 Xcoordinate
    75.129,                   !- Vertex 1 Ycoordinate
    10.416,                   !- Vertex 1 Zcoordinate
    27.987,                   !- Vertex 2 Xcoordinate
    75.129,                   !- Vertex 2 Ycoordinate
    0,                        !- Vertex 2 Zcoordinate
    28.892,                   !- Vertex 3 Xcoordinate
    74.752,                   !- Vertex 3 Ycoordinate
    0,                        !- Vertex 3 Zcoordinate
    28.892,                   !- Vertex 4 Xcoordinate
    74.752,                   !- Vertex 4 Ycoordinate
    10.416;                   !- Vertex 4 Zcoordinate

BUILDINGSURFACE:DETAILED,
    F_13,                     !- Name
    Wall,                     !- Surface Type
    C_F,                      !- Construction Name
    Zone_0599100100018469,    !- Zone Name
    ,                         !- Space Name
    Outdoors,                 !- Outside Boundary Condition
    ,                         !- Outside Boundary Condition Object
    SunExposed,               !- Sun Exposure
    WindExposed,              !- Wind Exposure
    0.5,                      !- View Factor to Ground
    4,                        !- Number of Vertices
    27.484,                   !- Vertex 1 Xcoordinate
    71.342,                   !- Vertex 1 Ycoordinate
    10.416,                   !- Vertex 1 Zcoordinate
    27.484,                   !- Vertex 2 Xcoordinate
    71.342,                   !- Vertex 2 Ycoordinate
    0,                        !- Vertex 2 Zcoordinate
    26.629,                   !- Vertex 3 Xcoordinate
    71.681,                   !- Vertex 3 Ycoordinate
    0,                        !- Vertex 3 Zcoordinate
    26.629,                   !- Vertex 4 Xcoordinate
    71.681,                   !- Vertex 4 Ycoordinate
    10.416;                   !- Vertex 4 Zcoordinate

BUILDINGSURFACE:DETAILED,
    F_14,                     !- Name
    Wall,                     !- Surface Type
    C_F,                      !- Construction Name
    Zone_0599100100018469,    !- Zone Name
    ,                         !- Space Name
    Outdoors,                 !- Outside Boundary Condition
    ,                         !- Outside Boundary Condition Object
    SunExposed,               !- Sun Exposure
    WindExposed,              !- Wind Exposure
    0.5,                      !- View Factor to Ground
    4,                        !- Number of Vertices
    28.892,                   !- Vertex 1 Xcoordinate
    74.752,                   !- Vertex 1 Ycoordinate
    10.416,                   !- Vertex 1 Zcoordinate
    28.892,                   !- Vertex 2 Xcoordinate
    74.752,                   !- Vertex 2 Ycoordinate
    0,                        !- Vertex 2 Zcoordinate
    27.484,                   !- Vertex 3 Xcoordinate
    71.342,                   !- Vertex 3 Ycoordinate
    0,                        !- Vertex 3 Zcoordinate
    27.484,                   !- Vertex 4 Xcoordinate