!- Windows Line endings 

Version,
    24.2;                     !- Version Identifier

SimulationControl,
    No,                       !- Do Zone Sizing Calculation
    No,                       !- Do System Sizing Calculation
    No,                       !- Do Plant Sizing Calculation
    No,                       !- Run Simulation for Sizing Periods
    Yes,                      !- Run Simulation for Weather File Run Periods
    No,                       !- Do HVAC Sizing Simulation for Sizing Periods
    1;                        !- Maximum Number of HVAC Sizing Simulation Passes

BUILDING,
    Pand.0599100000752139,    !- Name
    0,                        !- North Axis
    City,                     !- Terrain
    0.04,                     !- Loads Convergence Tolerance Value
    0.4,                      !- Temperature Convergence Tolerance Value
    FullExterior,             !- Solar Distribution
    25,                       !- Maximum Number of Warmup Days
    1;                        !- Minimum Number of Warmup Days

Timestep,
    6;                        !- Number of Timesteps per Hour

Site:Location,
    Rotterdam.The.Hague.AP_ZH_NLD Design_Conditions,    !- Name
    51.96,                    !- Latitude
    4.45,                     !- Longitude
    1,                        !- Time Zone
    -4.5;                     !- Elevation

RunPeriod,
    Run Period 1,             !- Name
    1,                        !- Begin Month
    1,                        !- Begin Day of Month
    ,                         !- Begin Year
    12,                       !- End Month
    31,                       !- End Day of Month
    ,                         !- End Year
    ,                         !- Day of Week for Start Day
    Yes,                      !- Use Weather File Holidays and Special Days
    Yes,                      !- Use Weather File Daylight Saving Period
    No,                       !- Apply Weekend Holiday Rule
    Yes,                      !- Use Weather File Rain Indicators
    Yes,                      !- Use Weather File Snow Indicators
    No,                       !- Treat Weather as Actual
    Hour24;                   !- First Hour Interpolation Starting Values

RunPeriodControl:DaylightSavingTime,
    Last Sunday in March,     !- Start Date
    Last Sunday in October;    !- End Date

SITE:GROUNDTEMPERATURE:BUILDINGSURFACE,
    18,                       !- January Ground Temperature
    18,                       !- February Ground Temperature
    18,                       !- March Ground Temperature
    18,                       !- April Ground Temperature
    18,                       !- May Ground Temperature
    18,                       !- June Ground Temperature
    18,                       !- July Ground Temperature
    18,                       !- August Ground Temperature
    18,                       !- September Ground Temperature
    18,                       !- October Ground Temperature
    18,                       !- November Ground Temperature
    18;                       !- December Ground Temperature

SCHEDULETYPELIMITS,
    Temperature,              !- Name
    -100,                     !- Lower Limit Value
    100,                      !- Upper Limit Value
    CONTINUOUS,               !- Numeric Type
    Temperature;              !- Unit Type

SCHEDULETYPELIMITS,
    Fraction,                 !- Name
    0,                        !- Lower Limit Value
    1,                        !- Upper Limit Value
    CONTINUOUS,               !- Numeric Type
    Dimensionless;            !- Unit Type

SCHEDULETYPELIMITS,
    Control Type,             !- Name
    0,                        !- Lower Limit Value
    4,                        !- Upper Limit Value
    DISCRETE,                 !- Numeric Type
    Dimensionless;            !- Unit Type

SCHEDULE:COMPACT,
    HeatingSetpoint_Zone_0599100000752139,    !- Name
    Temperature,              !- Schedule Type Limits Name
    Through: 12/31,           !- Field 1
    For: AllDays,             !- Field 2
    Until: 24:00,             !- Field 3
    21.0;                     !- Field 4

SCHEDULE:COMPACT,
    CoolingSetpoint_Zone_0599100000752139,    !- Name
    Temperature,              !- Schedule Type Limits Name
    Through: 12/31,           !- Field 1
    For: AllDays,             !- Field 2
    Until: 24:00,             !- Field 3
    24.0;                     !- Field 4

SCHEDULE:COMPACT,
    DualSetpointControlType,    !- Name
    Control Type,             !- Schedule Type Limits Name
    Through: 12/31,           !- Field 1
    For: AllDays,             !- Field 2
    Until: 24:00,             !- Field 3
    4;                        !- Field 4

SCHEDULE:COMPACT,
    AlwaysOn,                 !- Name
    Fraction,                 !- Schedule Type Limits Name
    Through: 12/31,           !- Field 1
    For: AllDays,             !- Field 2
    Until: 24:00,             !- Field 3
    1.0;                      !- Field 4

MATERIAL,
    G.TI.2006-2014,           !- Name
    MediumSmooth,             !- Roughness
    0.15,                     !- Thickness
    0.06,                     !- Conductivity
    540,                      !- Density
    1210,                     !- Specific Heat
    0.9,                      !- Thermal Absorptance
    0.7,                      !- Solar Absorptance
    0.7;                      !- Visible Absorptance

MATERIAL,
    F.TI.2006-2014,           !- Name
    Rough,                    !- Roughness
    0.3,                      !- Thickness
    0.12,                     !- Conductivity
    1920,                     !- Density
    840,                      !- Specific Heat
    0.9,                      !- Thermal Absorptance
    0.7,                      !- Solar Absorptance
    0.7;                      !- Visible Absorptance

MATERIAL,
    R.TI.2006-2014,           !- Name
    MediumRough,              !- Roughness
    0.2,                      !- Thickness
    0.08,                     !- Conductivity
    1500,                     !- Density
    1000,                     !- Specific Heat
    0.9,                      !- Thermal Absorptance
    0.7,                      !- Solar Absorptance
    0.7;                      !- Visible Absorptance

WINDOWMATERIAL:SIMPLEGLAZINGSYSTEM,
    W.TI.2006-2014,           !- Name
    1.8,                      !- UFactor
    0.4,                      !- Solar Heat Gain Coefficient
    0.6;                      !- Visible Transmittance

CONSTRUCTION,
    C_G,                      !- Name
    G.TI.2006-2014;           !- Outside Layer

CONSTRUCTION,
    C_F,                      !- Name
    F.TI.2006-2014;           !- Outside Layer

CONSTRUCTION,
    C_R,                      !- Name
    R.TI.2006-2014;           !- Outside Layer

GlobalGeometryRules,
    UpperLeftCorner,          !- Starting Vertex Position
    Counterclockwise,         !- Vertex Entry Direction
    World,                    !- Coordinate System
    World,                    !- Daylighting Reference Point Coordinate System
    Relative;                 !- Rectangular Surface Coordinate System

ZONE,
    Zone_0599100000752139,    !- Name
    0,                        !- Direction of Relative North
    0,                        !- X Origin
    0,                        !- Y Origin
    0,                        !- Z Origin
    1,                        !- Type
    1,                        !- Multiplier
    Autocalculate,            !- Ceiling Height
    Autocalculate,            !- Volume
    autocalculate,            !- Floor Area
    ,                         !- Zone Inside Convection Algorithm
    ,                         !- Zone Outside Convection Algorithm
    Yes;                      !- Part of Total Floor Area

BUILDINGSURFACE:DETAILED,
    G_0,                      !- Name
    Floor,                    !- Surface Type
    C_G,                      !- Construction Name
    Zone_0599100000752139,    !- Zone Name
    ,                         !- Space Name
    Ground,                   !- Outside Boundary Condition
    ,                         !- Outside Boundary Condition Object
    SunExposed,               !- Sun Exposure
    WindExposed,              !- Wind Exposure
    0.5,                      !- View Factor to Ground
    9,                        !- Number of Vertices
    15.625,                   !- Vertex 1 Xcoordinate
    105.945,                  !- Vertex 1 Ycoordinate
    0,                        !- Vertex 1 Zcoordinate
    56.128,                   !- Vertex 2 Xcoordinate
    99.656,                   !- Vertex 2 Ycoordinate
    0,                        !- Vertex 2 Zcoordinate
    44.068,                   !- Vertex 3 Xcoordinate
    22.392,                   !- Vertex 3 Ycoordinate
    0,                        !- Vertex 3 Zcoordinate
    42.421,                   !- Vertex 4 Xcoordinate
    13.449,                   !- Vertex 4 Ycoordinate
    0,                        !- Vertex 4 Zcoordinate
    40.552,                   !- Vertex 5 Xcoordinate
    0.004,                    !- Vertex 5 Ycoordinate
    0,                        !- Vertex 5 Zcoordinate
    18.895,                   !- Vertex 6 Xcoordinate
    3.444,                    !- Vertex 6 Ycoordinate
    0,                        !- Vertex 6 Zcoordinate
    18.787,                   !- Vertex 7 Xcoordinate
    3.641,                    !- Vertex 7 Ycoordinate
    0,                        !- Vertex 7 Zcoordinate
    2.548,                    !- Vertex 8 Xcoordinate
    6.041,                    !- Vertex 8 Ycoordinate
    0,                        !- Vertex 8 Zcoordinate
    0.089,                    !- Vertex 9 Xcoordinate
    6.431,                    !- Vertex 9 Ycoordinate
    0;                        !- Vertex 9 Zcoordinate

BUILDINGSURFACE:DETAILED,
    G_1,                      !- Name
    Floor,                    !- Surface Type
    C_G,                      !- Construction Name
    Zone_0599100000752139,    !- Zone Name
    ,                         !- Space Name
    Ground,                   !- Outside Boundary Condition
    ,                         !- Outside Boundary Condition Object
    SunExposed,               !- Sun Exposure
    WindExposed,              !- Wind Exposure
    0.5,                      !- View Factor to Ground
    8,                        !- Number of Vertices
    40.276,                   !- Vertex 1 Xcoordinate
    96.223,                   !- Vertex 1 Ycoordinate
    0,                        !- Vertex 1 Zcoordinate
    35.949,                   !- Vertex 2 Xcoordinate
    97.176,                   !- Vertex 2 Ycoordinate
    0,                        !- Vertex 2 Zcoordinate
    36.155,                   !- Vertex 3 Xcoordinate
    94.53,                    !- Vertex 3 Ycoordinate
    0,                        !- Vertex 3 Zcoordinate
    34.972,                   !- Vertex 4 Xcoordinate
    94.235,                   !- Vertex 4 Ycoordinate
    0,                        !- Vertex 4 Zcoordinate
    32.716,                   !- Vertex 5 Xcoordinate
    79.741,                   !- Vertex 5 Ycoordinate
    0,                        !- Vertex 5 Zcoordinate
    40.485,                   !- Vertex 6 Xcoordinate
    78.093,                   !- Vertex 6 Ycoordinate
    0,                        !- Vertex 6 Zcoordinate
    41.957,                   !- Vertex 7 Xcoordinate
    87.646,                   !- Vertex 7 Ycoordinate
    0,                        !- Vertex 7 Zcoordinate
    39.091,                   !- Vertex 8 Xcoordinate
    87.827,                   !- Vertex 8 Ycoordinate
    0;                        !- Vertex 8 Zcoordinate

BUILDINGSURFACE:DETAILED,
    G_2,                      !- Name
    Floor,                    !- Surface Type
    C_G,                      !- Construction Name
    Zone_0599100000752139,    !- Zone Name
    ,                         !- Space Name
    Ground,                   !- Outside Boundary Condition
    ,                         !- Outside Boundary Condition Object
    SunExposed,               !- Sun Exposure
    WindExposed,              !- Wind Exposure
    0.5,                      !- View Factor to Ground
    4,                        !- Number of Vertices
    26.643,                   !- Vertex 1 Xcoordinate
    48.487,                   !- Vertex 1 Ycoordinate
    0,                        !- Vertex 1 Zcoordinate
    29.386,                   !- Vertex 2 Xcoordinate
    48.566,                   !- Vertex 2 Ycoordinate
    0,                        !- Vertex 2 Zcoordinate
    29.484,                   !- Vertex 3 Xcoordinate
    48.956,                   !- Vertex 3 Ycoordinate
    0,                        !- Vertex 3 Zcoordinate
    25.98,                    !- Vertex 4 Xcoordinate
    49.601,                   !- Vertex 4 Ycoordinate
    0;                        !- Vertex 4 Zcoordinate

BUILDINGSURFACE:DETAILED,
    G_3,                      !- Name
    Floor,                    !- Surface Type
    C_G,                      !- Construction Name
    Zone_0599100000752139,    !- Zone Name
    ,                         !- Space Name
    Ground,                   !- Outside Boundary Condition
    ,                         !- Outside Boundary Condition Object
    SunExposed,               !- Sun Exposure
    WindExposed,              !- Wind Exposure
    0.5,                      !- View Factor to Ground
    25,                       !- Number of Vertices
    28.555,                   !- Vertex 1 Xcoordinate
    45.269,                   !- Vertex 1 Ycoordinate
    0,                        !- Vertex 1 Zcoordinate
    25.106,                   !- Vertex 2 Xcoordinate
    31.574,                   !- Vertex 2 Ycoordinate
    0,                        !- Vertex 2 Zcoordinate
    22.423,                   !- Vertex 3 Xcoordinate
    32.048,                   !- Vertex 3 Ycoordinate
    0,                        !- Vertex 3 Zcoordinate
    22.075,                   !- Vertex 4 Xcoordinate
    29.91,                    !- Vertex 4 Ycoordinate
    0,                        !- Vertex 4 Zcoordinate
    24.936,                   !- Vertex 5 Xcoordinate
    29.184,                   !- Vertex 5 Ycoordinate
    0,                        !- Vertex 5 Zcoordinate
    23.292,                   !- Vertex 6 Xcoordinate
    24.315,                   !- Vertex 6 Ycoordinate
    0,                        !- Vertex 6 Zcoordinate
    21.176,                   !- Vertex 7 Xcoordinate
    24.395,                   !- Vertex 7 Ycoordinate
    0,                        !- Vertex 7 Zcoordinate
    20.159,                   !- Vertex 8 Xcoordinate
    18.151,                   !- Vertex 8 Ycoordinate
    0,                        !- Vertex 8 Zcoordinate
    26.169,                   !- Vertex 9 Xcoordinate
    16.105,                   !- Vertex 9 Ycoordinate
    0,                        !- Vertex 9 Zcoordinate
    25.2,                     !- Vertex 10 Xcoordinate
    8.678,                    !- Vertex 10 Ycoordinate
    0,                        !- Vertex 10 Zcoordinate
    27.641,                   !- Vertex 11 Xcoordinate
    8.222,                    !- Vertex 11 Ycoordinate
    0,                        !- Vertex 11 Zcoordinate
    28.334,                   !- Vertex 12 Xcoordinate
    11.808,                   !- Vertex 12 Ycoordinate
    0,                        !- Vertex 12 Zcoordinate
    30.22,                    !- Vertex 13 Xcoordinate
    11.469,                   !- Vertex 13 Ycoordinate
    0,                        !- Vertex 13 Zcoordinate
    30.928,                   !- Vertex 14 Xcoordinate
    16.061,                   !- Vertex 14 Ycoordinate
    0,                        !- Vertex 14 Zcoordinate
    28.587,                   !- Vertex 15 Xcoordinate
    16.567,                   !- Vertex 15 Ycoordinate
    0,                        !- Vertex 15 Zcoordinate
    29.103,                   !- Vertex 16 Xcoordinate
    20.791,                   !- Vertex 16 Ycoordinate
    0,                        !- Vertex 16 Zcoordinate
    31.615,                   !- Vertex 17 Xcoordinate
    20.519,                   !- Vertex 17 Ycoordinate
    0,                        !- Vertex 17 Zcoordinate
    32.583,                   !- Vertex 18 Xcoordinate
    26.806,                   !- Vertex 18 Ycoordinate
    0,                        !- Vertex 18 Zcoordinate
    30.137,                   !- Vertex 19 Xcoordinate
    27.058,                   !- Vertex 19 Ycoordinate
    0,                        !- Vertex 19 Zcoordinate
    31.255,                   !- Vertex 20 Xcoordinate
    34.231,                   !- Vertex 20 Ycoordinate
    0,                        !- Vertex 20 Zcoordinate
    33.664,                   !- Vertex 21 Xcoordinate
    33.82,                    !- Vertex 21 Ycoordinate
    0,                        !- Vertex 21 Zcoordinate
    34.357,                   !- Vertex 22 Xcoordinate
    38.318,                   !- Vertex 22 Ycoordinate
    0,                        !- Vertex 22 Zcoordinate
    31.915,                   !- Vertex 23 Xcoordinate
    38.498,                   !- Vertex 23 Ycoordinate
    0,                        !- Vertex 23 Zcoordinate
    29.962,                   !- Vertex 24 Xcoordinate
    44.709,                   !- Vertex 24 Ycoordinate
    0,                        !- Vertex 24 Zcoordinate
    28.821,                   !- Vertex 25 Xcoordinate
    44.822,                   !- Vertex 25 Ycoordinate
    0;                        !- Vertex 25 Zcoordinate

BUILDINGSURFACE:DETAILED,
    F_4,                      !- Name
    Wall,                     !- Surface Type
    C_F,                      !- Construction Name
    Zone_0599100000752139,    !- Zone Name
    ,                         !- Space Name
    Outdoors,                 !- Outside Boundary Condition
    ,                         !- Outside Boundary Condition Object
    SunExposed,               !- Sun Exposure
    WindExposed,              !- Wind Exposure
    0.5,                      !- View Factor to Ground
    4,                        !- Number of Vertices
    42.421,                   !- Vertex 1 Xcoordinate
    13.449,                   !- Vertex 1 Ycoordinate
    10.082,                   !- Vertex 1 Zcoordinate
    42.421,                   !- Vertex 2 Xcoordinate
    13.449,                   !- Vertex 2 Ycoordinate
    0,                        !- Vertex 2 Zcoordinate
    44.068,                   !- Vertex 3 Xcoordinate
    22.392,                   !- Vertex 3 Ycoordinate
    0,                        !- Vertex 3 Zcoordinate
    44.068,                   !- Vertex 4 Xcoordinate
    22.392,                   !- Vertex 4 Ycoordinate
    10.082;                   !- Vertex 4 Zcoordinate

BUILDINGSURFACE:DETAILED,
    F_5,                      !- Name
    Wall,                     !- Surface Type
    C_F,                      !- Construction Name
    Zone_0599100000752139,    !- Zone Name
    ,                         !- Space Name
    Outdoors,                 !- Outside Boundary Condition
    ,                         !- Outside Boundary Condition Object
    SunExposed,               !- Sun Exposure
    WindExposed,              !- Wind Exposure
    0.5,                      !- View Factor to Ground
    4,                        !- Number of Vertices
    40.552,                   !- Vertex 1 Xcoordinate
    0.004,                    !- Vertex 1 Ycoordinate
    10.082,                   !- Vertex 1 Zcoordinate
    40.552,                   !- Vertex 2 Xcoordinate
    0.004,                    !- Vertex 2 Ycoordinate
    0,                        !- Vertex 2 Zcoordinate
    42.421,                   !- Vertex 3 Xcoordinate
    13.449,                   !- Vertex 3 Ycoordinate
    0,                        !- Vertex 3 Zcoordinate
    42.421,                   !- Vertex 4 Xcoordinate
    13.449,                   !- Vertex 4 Ycoordinate
    10.082;                   !- Vertex 4 Zcoordinate

BUILDINGSURFACE:DETAILED,
    F_6,                      !- Name
    Wall,                     !- Surface Type
    C_F,                      !- Construction Name
    Zone_0599100000752139,    !- Zone Name
    ,                         !- Space Name
    Outdoors,                 !- Outside Boundary Condition
    ,                         !- Outside Boundary Condition Object
    SunExposed,               !- Sun Exposure
    WindExposed,              !- Wind Exposure
    0.5,                      !- View Factor to Ground
    4,                        !- Number of Vertices
    22.075,                   !- Vertex 1 Xcoordinate
    29.91,                    !- Vertex 1 Ycoordinate
    10.082,                   !- Vertex 1 Zcoordinate
    22.075,                   !- Vertex 2 Xcoordinate
    29.91,                    !- Vertex 2 Ycoordinate
    0,                        !- Vertex 2 Zcoordinate
    22.423,                   !- Vertex 3 Xcoordinate
    32.048,                   !- Vertex 3 Ycoordinate
    0,                        !- Vertex 3 Zcoordinate
    22.423,                   !- Vertex 4 Xcoordinate
    32.048,                   !- Vertex 4 Ycoordinate
    10.082;                   !- Vertex 4 Zcoordinate

BUILDINGSURFACE:DETAILED,
    F_7,                      !- Name
    Wall,                     !- Surface Type
    C_F,                      !- Construction Name
    Zone_0599100000752139,    !- Zone Name
    ,                         !- Space Name
    Outdoors,                 !- Outside Boundary Condition
    ,                         !- Outside Boundary Condition Object
    SunExposed,               !- Sun Exposure
    WindExposed,              !- Wind Exposure
    0.5,                      !- View Factor to Ground
    4,                        !- Number of Vertices
    22.423,                   !- Vertex 1 Xcoordinate
    32.048,                   !- Vertex 1 Ycoordinate
    10.082,                   !- Vertex 1 Zcoordinate
    22.423,                   !- Vertex 2 Xcoordinate
    32.048,                   !- Vertex 2 Ycoordinate
    0,                        !- Vertex 2 Zcoordinate
    25.106,                   !- Vertex 3 Xcoordinate
    31.574,                   !- Vertex 3 Ycoordinate
    0,                        !- Vertex 3 Zcoordinate
    25.106,                   !- Vertex 4 Xcoordinate
    31.574,                   !- Vertex 4 Ycoordinate
    10.082;                   !- Vertex 4 Zcoordinate

BUILDINGSURFACE:DETAILED,
    F_8,                      !- Name
    Wall,                     !- Surface Type
    C_F,                      !- Construction Name
    Zone_0599100000752139,    !- Zone Name
    ,                         !- Space Name
    Outdoors,                 !- Outside Boundary Condition
    ,                         !- Outside Boundary Condition Object
    SunExposed,               !- Sun Exposure
    WindExposed,              !- Wind Exposure
    0.5,                      !- View Factor to Ground
    4,                        !- Number of Vertices
    18.895,                   !- Vertex 1 Xcoordinate
    3.444,                    !- Vertex 1 Ycoordinate
    10.082,                   !- Vertex 1 Zcoordinate
    18.895,                   !- Vertex 2 Xcoordinate
    3.444,                    !- Vertex 2 Ycoordinate
    0,                        !- Vertex 2 Zcoordinate
    40.552,                   !- Vertex 3 Xcoordinate
    0.004,                    !- Vertex 3 Ycoordinate
    0,                        !- Vertex 3 Zcoordinate
    40.552,                   !- Vertex 4 Xcoordinate
    0.004,                    !- Vertex 4 Ycoordinate
    10.082;                   !- Vertex 4 Zcoordinate

BUILDINGSURFACE:DETAILED,
    F_9,                      !- Name
    Wall,                     !- Surface Type
    C_F,                      !- Construction Name
    Zone_0599100000752139,    !- Zone Name
    ,                         !- Space Name
    Outdoors,                 !- Outside Boundary Condition
    ,                         !- Outside Boundary Condition Object
    SunExposed,               !- Sun Exposure
    WindExposed,              !- Wind Exposure
    0.5,                      !- View Factor to Ground
    4,                        !- Number of Vertices
    2.548,                    !- Vertex 1 Xcoordinate
    6.041,                    !- Vertex 1 Ycoordinate
    10.082,                   !- Vertex 1 Zcoordinate
    2.548,                    !- Vertex 2 Xcoordinate
    6.041,                    !- Vertex 2 Ycoordinate
    0,                        !- Vertex 2 Zcoordinate
    18.787,                   !- Vertex 3 Xcoordinate
    3.641,                    !- Vertex 3 Ycoordinate
    0,                        !- Vertex 3 Zcoordinate
    18.787,                   !- Vertex 4 Xcoordinate
    3.641,                    !- Vertex 4 Ycoordinate
    10.082;                   !- Vertex 4 Zcoordinate

BUILDINGSURFACE:DETAILED,
    F_10,                     !- Name
    Wall,                     !- Surface Type
    C_F,                      !- Construction Name
    Zone_0599100000752139,    !- Zone Name
    ,                         !- Space Name
    Outdoors,                 !- Outside Boundary Condition
    ,                         !- Outside Boundary Condition Object
    SunExposed,               !- Sun Exposure
    WindExposed,              !- Wind Exposure
    0.5,                      !- View Factor to Ground
    4,                        !- Number of Vertices
    56.128,                   !- Vertex 1 Xcoordinate
    99.656,                   !- Vertex 1 Ycoordinate
    10.082,                   !- Vertex 1 Zcoordinate
    56.128,                   !- Vertex 2 Xcoordinate
    99.656,                   !- Vertex 2 Ycoordinate
    0,                        !- Vertex 2 Zcoordinate
    15.625,                   !- Vertex 3 Xcoordinate
    105.945,                  !- Vertex 3 Ycoordinate
    0,                        !- Vertex 3 Zcoordinate
    15.625,                   !- Vertex 4 Xcoordinate
    105.945,                  !- Vertex 4 Ycoordinate
    10.082;                   !- Vertex 4 Zcoordinate

BUILDINGSURFACE:DETAILED,
    F_11,                     !- Name
    Wall,                     !- Surface Type
    C_F,                      !- Construction Name
    Zone_0599100000752139,    !- Zone Name
    ,                         !- Space Name
    Outdoors,                 !- Outside Boundary Condition
    ,                         !- Outside Boundary Condition Object
    SunExposed,               !- Sun Exposure
    WindExposed,              !- Wind Exposure
    0.5,                      !- View Factor to Ground
    4,                        !- Number of Vertices
    28.555,                   !- Vertex 1 Xcoordinate
    45.269,                   !- Vertex 1 Ycoordinate
    10.082,                   !- Vertex 1 Zcoordinate
    28.555,                   !- Vertex 2 Xcoordinate
    45.269,                   !- Vertex 2 Ycoordinate
    0,                        !- Vertex 2 Zcoordinate
    28.821,                   !- Vertex 3 Xcoordinate
    44.822,                   !- Vertex 3 Ycoordinate
    0,                        !- Vertex 3 Zcoordinate
    28.821,                   !- Vertex 4 Xcoordinate
    44.822,                   !- Vertex 4 Ycoordinate
    10.082;                   !- Vertex 4 Zcoordinate

BUILDINGSURFACE:DETAILED,
    F_12,                     !- Name
    Wall,                     !- Surface Type
    C_F,                      !- Construction Name
    Zone_0599100000752139,    !- Zone Name
    ,                         !- Space Name
    Outdoors,                 !- Outside Boundary Condition
    ,                         !- Outside Boundary Condition Object
    SunExposed,               !- Sun Exposure
    WindExposed,              !- Wind Exposure
    0.5,                      !- View Factor to Ground
    4,                        !- Number of Vertices
    25.98,                    !- Vertex 1 Xcoordinate
    49.601,                   !- Vertex 1 Ycoordinate
    10.082,                   !- Vertex 1 Zcoordinate
    25.98,                    !- Vertex 2 Xcoordinate
    49.601,                   !- Vertex 2 Ycoordinate
    0,                        !- Vertex 2 Zcoordinate
    29.484,                   !- Vertex 3 Xcoordinate
    48.956,                   !- Vertex 3 Ycoordinate
    0,                        !- Vertex 3 Zcoordinate
    29.484,                   !- Vertex 4 Xcoordinate
    48.956,                   !- Vertex 4 Ycoordinate
    10.082;                   !- Vertex 4 Zcoordinate

BUILDINGSURFACE:DETAILED,
    F_13,                     !- Name
    Wall,                     !- Surface Type
    C_F,                      !- Construction Name
    Zone_0599100000752139,    !- Zone Name
    ,                         !- Space Name
    Outdoors,                 !- Outside Boundary Condition
    ,                         !- Outside Boundary Condition Object
    SunExposed,               !- Sun Exposure
    WindExposed,              !- Wind Exposure
    0.5,                      !- View Factor to Ground
    4,                        !- Number of Vertices
    44.068,                   !- Vertex 1 Xcoordinate
    22.392,                   !- Vertex 1 Ycoordinate
    10.082,                   !- Vertex 1 Zcoordinate
    44.068,                   !- Vertex 2 Xcoordinate
    22.392,                   !- Vertex 2 Ycoordinate
    0,                        !- Vertex 2 Zcoordinate
    56.128,                   !- Vertex 3 Xcoordinate
    99.656,                   !- Vertex 3 Ycoordinate
    0,                        !- Vertex 3 Zcoordinate
    56.128,                   !- Vertex 4 Xcoordinate
    99.656,                   !- Vertex 4 Ycoordinate
    10.082;                   !- Vertex 4 Zcoordinate

BUILDINGSURFACE:DETAILED,
    F_14,                     !- Name
    Wall,                     !- Surface Type
    C_F,                      !- Construction Name