!- Windows Line endings 

Version,
    24.2;                     !- Version Identifier

SimulationControl,
    No,                       !- Do Zone Sizing Calculation
    No,                       !- Do System Sizing Calculation
    No,                       !- Do Plant Sizing Calculation
    No,                       !- Run Simulation for Sizing Periods
    Yes,                      !- Run Simulation for Weather File Run Periods
    No,                       !- Do HVAC Sizing Simulation for Sizing Periods
    1;                        !- Maximum Number of HVAC Sizing Simulation Passes

BUILDING,
    Pand.0599100000701301,    !- Name
    0,                        !- North Axis
    City,                     !- Terrain
    0.04,                     !- Loads Convergence Tolerance Value
    0.4,                      !- Temperature Convergence Tolerance Value
    FullExterior,             !- Solar Distribution
    25,                       !- Maximum Number of Warmup Days
    1;                        !- Minimum Number of Warmup Days

Timestep,
    6;                        !- Number of Timesteps per Hour

Site:Location,
    Rotterdam.The.Hague.AP_ZH_NLD Design_Conditions,    !- Name
    51.96,                    !- Latitude
    4.45,                     !- Longitude
    1,                        !- Time Zone
    -4.5;                     !- Elevation

RunPeriod,
    Run Period 1,             !- Name
    1,                        !- Begin Month
    1,                        !- Begin Day of Month
    ,                         !- Begin Year
    12,                       !- End Month
    31,                       !- End Day of Month
    ,                         !- End Year
    ,                         !- Day of Week for Start Day
    Yes,                      !- Use Weather File Holidays and Special Days
    Yes,                      !- Use Weather File Daylight Saving Period
    No,                       !- Apply Weekend Holiday Rule
    Yes,                      !- Use Weather File Rain Indicators
    Yes,                      !- Use Weather File Snow Indicators
    No,                       !- Treat Weather as Actual
    Hour24;                   !- First Hour Interpolation Starting Values

RunPeriodControl:DaylightSavingTime,
    Last Sunday in March,     !- Start Date
    Last Sunday in October;    !- End Date

SITE:GROUNDTEMPERATURE:BUILDINGSURFACE,
    18,                       !- January Ground Temperature
    18,                       !- February Ground Temperature
    18,                       !- March Ground Temperature
    18,                       !- April Ground Temperature
    18,                       !- May Ground Temperature
    18,                       !- June Ground Temperature
    18,                       !- July Ground Temperature
    18,                       !- August Ground Temperature
    18,                       !- September Ground Temperature
    18,                       !- October Ground Temperature
    18,                       !- November Ground Temperature
    18;                       !- December Ground Temperature

SCHEDULETYPELIMITS,
    Temperature,              !- Name
    -100,                     !- Lower Limit Value
    100,                      !- Upper Limit Value
    CONTINUOUS,               !- Numeric Type
    Temperature;              !- Unit Type

SCHEDULETYPELIMITS,
    Fraction,                 !- Name
    0,                        !- Lower Limit Value
    1,                        !- Upper Limit Value
    CONTINUOUS,               !- Numeric Type
    Dimensionless;            !- Unit Type

SCHEDULETYPELIMITS,
    Control Type,             !- Name
    0,                        !- Lower Limit Value
    4,                        !- Upper Limit Value
    DISCRETE,                 !- Numeric Type
    Dimensionless;            !- Unit Type

SCHEDULE:COMPACT,
    HeatingSetpoint_Zone_0599100000701301,    !- Name
    Temperature,              !- Schedule Type Limits Name
    Through: 12/31,           !- Field 1
    For: AllDays,             !- Field 2
    Until: 24:00,             !- Field 3
    21.0;                     !- Field 4

SCHEDULE:COMPACT,
    CoolingSetpoint_Zone_0599100000701301,    !- Name
    Temperature,              !- Schedule Type Limits Name
    Through: 12/31,           !- Field 1
    For: AllDays,             !- Field 2
    Until: 24:00,             !- Field 3
    24.0;                     !- Field 4

SCHEDULE:COMPACT,
    DualSetpointControlType,    !- Name
    Control Type,             !- Schedule Type Limits Name
    Through: 12/31,           !- Field 1
    For: AllDays,             !- Field 2
    Until: 24:00,             !- Field 3
    4;                        !- Field 4

SCHEDULE:COMPACT,
    AlwaysOn,                 !- Name
    Fraction,                 !- Schedule Type Limits Name
    Through: 12/31,           !- Field 1
    For: AllDays,             !- Field 2
    Until: 24:00,             !- Field 3
    1.0;                      !- Field 4

MATERIAL,
    G.TI.1946,                !- Name
    MediumSmooth,             !- Roughness
    0.15,                     !- Thickness
    1,                        !- Conductivity
    540,                      !- Density
    1210,                     !- Specific Heat
    0.9,                      !- Thermal Absorptance
    0.7,                      !- Solar Absorptance
    0.7;                      !- Visible Absorptance

MATERIAL,
    F.TI.1946,                !- Name
    Rough,                    !- Roughness
    0.3,                      !- Thickness
    0.8571428571428572,       !- Conductivity
    1920,                     !- Density
    840,                      !- Specific Heat
    0.9,                      !- Thermal Absorptance
    0.7,                      !- Solar Absorptance
    0.7;                      !- Visible Absorptance

MATERIAL,
    R.TI.1946,                !- Name
    MediumRough,              !- Roughness
    0.2,                      !- Thickness
    0.1,                      !- Conductivity
    1500,                     !- Density
    1000,                     !- Specific Heat
    0.9,                      !- Thermal Absorptance
    0.7,                      !- Solar Absorptance
    0.7;                      !- Visible Absorptance

WINDOWMATERIAL:SIMPLEGLAZINGSYSTEM,
    W.TI.1946,                !- Name
    2.9,                      !- UFactor
    0.6,                      !- Solar Heat Gain Coefficient
    0.6;                      !- Visible Transmittance

CONSTRUCTION,
    C_G,                      !- Name
    G.TI.1946;                !- Outside Layer

CONSTRUCTION,
    C_F,                      !- Name
    F.TI.1946;                !- Outside Layer

CONSTRUCTION,
    C_R,                      !- Name
    R.TI.1946;                !- Outside Layer

GlobalGeometryRules,
    UpperLeftCorner,          !- Starting Vertex Position
    Counterclockwise,         !- Vertex Entry Direction
    World,                    !- Coordinate System
    World,                    !- Daylighting Reference Point Coordinate System
    Relative;                 !- Rectangular Surface Coordinate System

ZONE,
    Zone_0599100000701301,    !- Name
    0,                        !- Direction of Relative North
    0,                        !- X Origin
    0,                        !- Y Origin
    0,                        !- Z Origin
    1,                        !- Type
    1,                        !- Multiplier
    Autocalculate,            !- Ceiling Height
    Autocalculate,            !- Volume
    autocalculate,            !- Floor Area
    ,                         !- Zone Inside Convection Algorithm
    ,                         !- Zone Outside Convection Algorithm
    Yes;                      !- Part of Total Floor Area

BUILDINGSURFACE:DETAILED,
    G_0,                      !- Name
    Floor,                    !- Surface Type
    C_G,                      !- Construction Name
    Zone_0599100000701301,    !- Zone Name
    ,                         !- Space Name
    Ground,                   !- Outside Boundary Condition
    ,                         !- Outside Boundary Condition Object
    SunExposed,               !- Sun Exposure
    WindExposed,              !- Wind Exposure
    0.5,                      !- View Factor to Ground
    246,                      !- Number of Vertices
    35.019,                   !- Vertex 1 Xcoordinate
    47.682,                   !- Vertex 1 Ycoordinate
    4.822,                    !- Vertex 1 Zcoordinate
    33.809,                   !- Vertex 2 Xcoordinate
    48.43,                    !- Vertex 2 Ycoordinate
    4.822,                    !- Vertex 2 Zcoordinate
    33.669,                   !- Vertex 3 Xcoordinate
    48.229,                   !- Vertex 3 Ycoordinate
    4.822,                    !- Vertex 3 Zcoordinate
    33.11,                    !- Vertex 4 Xcoordinate
    48.575,                   !- Vertex 4 Ycoordinate
    4.822,                    !- Vertex 4 Zcoordinate
    33.35,                    !- Vertex 5 Xcoordinate
    48.957,                   !- Vertex 5 Ycoordinate
    4.822,                    !- Vertex 5 Zcoordinate
    31.17,                    !- Vertex 6 Xcoordinate
    50.424,                   !- Vertex 6 Ycoordinate
    4.822,                    !- Vertex 6 Zcoordinate
    30.881,                   !- Vertex 7 Xcoordinate
    49.956,                   !- Vertex 7 Ycoordinate
    4.822,                    !- Vertex 7 Zcoordinate
    30.358,                   !- Vertex 8 Xcoordinate
    50.28,                    !- Vertex 8 Ycoordinate
    4.822,                    !- Vertex 8 Zcoordinate
    30.489,                   !- Vertex 9 Xcoordinate
    50.479,                   !- Vertex 9 Ycoordinate
    4.822,                    !- Vertex 9 Zcoordinate
    29.304,                   !- Vertex 10 Xcoordinate
    51.194,                   !- Vertex 10 Ycoordinate
    4.822,                    !- Vertex 10 Zcoordinate
    29.349,                   !- Vertex 11 Xcoordinate
    51.341,                   !- Vertex 11 Ycoordinate
    4.822,                    !- Vertex 11 Zcoordinate
    29.14,                    !- Vertex 12 Xcoordinate
    51.292,                   !- Vertex 12 Ycoordinate
    4.822,                    !- Vertex 12 Zcoordinate
    29.078,                   !- Vertex 13 Xcoordinate
    51.329,                   !- Vertex 13 Ycoordinate
    4.822,                    !- Vertex 13 Zcoordinate
    30.669,                   !- Vertex 14 Xcoordinate
    53.939,                   !- Vertex 14 Ycoordinate
    4.822,                    !- Vertex 14 Zcoordinate
    30.238,                   !- Vertex 15 Xcoordinate
    54.207,                   !- Vertex 15 Ycoordinate
    4.822,                    !- Vertex 15 Zcoordinate
    30.289,                   !- Vertex 16 Xcoordinate
    54.372,                   !- Vertex 16 Ycoordinate
    4.822,                    !- Vertex 16 Zcoordinate
    21.679,                   !- Vertex 17 Xcoordinate
    59.698,                   !- Vertex 17 Ycoordinate
    4.822,                    !- Vertex 17 Zcoordinate
    27.669,                   !- Vertex 18 Xcoordinate
    69.36,                    !- Vertex 18 Ycoordinate
    4.822,                    !- Vertex 18 Zcoordinate
    24.59,                    !- Vertex 19 Xcoordinate
    71.25,                    !- Vertex 19 Ycoordinate
    4.822,                    !- Vertex 19 Zcoordinate
    24.689,                   !- Vertex 20 Xcoordinate
    71.399,                   !- Vertex 20 Ycoordinate
    4.822,                    !- Vertex 20 Zcoordinate
    17.85,                    !- Vertex 21 Xcoordinate
    75.9,                     !- Vertex 21 Ycoordinate
    4.822,                    !- Vertex 21 Zcoordinate
    17.609,                   !- Vertex 22 Xcoordinate
    75.429,                   !- Vertex 22 Ycoordinate
    4.822,                    !- Vertex 22 Zcoordinate
    17.28,                    !- Vertex 23 Xcoordinate
    75.61,                    !- Vertex 23 Ycoordinate
    4.822,                    !- Vertex 23 Zcoordinate
    15.969,                   !- Vertex 24 Xcoordinate
    73.419,                   !- Vertex 24 Ycoordinate
    4.822,                    !- Vertex 24 Zcoordinate
    16.299,                   !- Vertex 25 Xcoordinate
    73.22,                    !- Vertex 25 Ycoordinate
    4.822,                    !- Vertex 25 Zcoordinate
    16.079,                   !- Vertex 26 Xcoordinate
    72.849,                   !- Vertex 26 Ycoordinate
    4.822,                    !- Vertex 26 Zcoordinate
    15.74,                    !- Vertex 27 Xcoordinate
    73.03,                    !- Vertex 27 Ycoordinate
    4.822,                    !- Vertex 27 Zcoordinate
    14.429,                   !- Vertex 28 Xcoordinate
    70.849,                   !- Vertex 28 Ycoordinate
    4.822,                    !- Vertex 28 Zcoordinate
    14.759,                   !- Vertex 29 Xcoordinate
    70.649,                   !- Vertex 29 Ycoordinate
    4.822,                    !- Vertex 29 Zcoordinate
    14.539,                   !- Vertex 30 Xcoordinate
    70.269,                   !- Vertex 30 Ycoordinate
    4.822,                    !- Vertex 30 Zcoordinate
    14.189,                   !- Vertex 31 Xcoordinate
    70.439,                   !- Vertex 31 Ycoordinate
    4.822,                    !- Vertex 31 Zcoordinate
    12.869,                   !- Vertex 32 Xcoordinate
    68.269,                   !- Vertex 32 Ycoordinate
    4.822,                    !- Vertex 32 Zcoordinate
    12.967,                   !- Vertex 33 Xcoordinate
    68.21,                    !- Vertex 33 Ycoordinate
    4.822,                    !- Vertex 33 Zcoordinate
    12.726,                   !- Vertex 34 Xcoordinate
    67.798,                   !- Vertex 34 Ycoordinate
    4.822,                    !- Vertex 34 Zcoordinate
    12.67,                    !- Vertex 35 Xcoordinate
    67.82,                    !- Vertex 35 Ycoordinate
    4.822,                    !- Vertex 35 Zcoordinate
    11.32,                    !- Vertex 36 Xcoordinate
    65.7,                     !- Vertex 36 Ycoordinate
    4.822,                    !- Vertex 36 Zcoordinate
    11.459,                   !- Vertex 37 Xcoordinate
    65.628,                   !- Vertex 37 Ycoordinate
    4.822,                    !- Vertex 37 Zcoordinate
    11.229,                   !- Vertex 38 Xcoordinate
    65.233,                   !- Vertex 38 Ycoordinate
    4.822,                    !- Vertex 38 Zcoordinate
    11.119,                   !- Vertex 39 Xcoordinate
    65.29,                    !- Vertex 39 Ycoordinate
    4.822,                    !- Vertex 39 Zcoordinate
    10.6,                     !- Vertex 40 Xcoordinate
    64.469,                   !- Vertex 40 Ycoordinate
    4.822,                    !- Vertex 40 Zcoordinate
    10.92,                    !- Vertex 41 Xcoordinate
    64.26,                    !- Vertex 41 Ycoordinate
    4.822,                    !- Vertex 41 Zcoordinate
    10.689,                   !- Vertex 42 Xcoordinate
    63.89,                    !- Vertex 42 Ycoordinate
    4.822,                    !- Vertex 42 Zcoordinate
    10.42,                    !- Vertex 43 Xcoordinate
    64.05,                    !- Vertex 43 Ycoordinate
    4.822,                    !- Vertex 43 Zcoordinate
    10.24,                    !- Vertex 44 Xcoordinate
    63.769,                   !- Vertex 44 Ycoordinate
    4.822,                    !- Vertex 44 Zcoordinate
    9.869,                    !- Vertex 45 Xcoordinate
    63.999,                   !- Vertex 45 Ycoordinate
    4.822,                    !- Vertex 45 Zcoordinate
    10.06,                    !- Vertex 46 Xcoordinate
    64.34,                    !- Vertex 46 Ycoordinate
    4.822,                    !- Vertex 46 Zcoordinate
    9.03,                     !- Vertex 47 Xcoordinate
    64.95,                    !- Vertex 47 Ycoordinate
    4.822,                    !- Vertex 47 Zcoordinate
    8.928,                    !- Vertex 48 Xcoordinate
    64.801,                   !- Vertex 48 Ycoordinate
    4.822,                    !- Vertex 48 Zcoordinate
    8.569,                    !- Vertex 49 Xcoordinate
    65.127,                   !- Vertex 49 Ycoordinate
    4.822,                    !- Vertex 49 Zcoordinate
    8.609,                    !- Vertex 50 Xcoordinate
    65.2,                     !- Vertex 50 Ycoordinate
    4.822,                    !- Vertex 50 Zcoordinate
    6.719,                    !- Vertex 51 Xcoordinate
    66.33,                    !- Vertex 51 Ycoordinate
    4.822,                    !- Vertex 51 Zcoordinate
    6.509,                    !- Vertex 52 Xcoordinate
    66.009,                   !- Vertex 52 Ycoordinate
    4.822,                    !- Vertex 52 Zcoordinate
    6.119,                    !- Vertex 53 Xcoordinate
    66.24,                    !- Vertex 53 Ycoordinate
    4.822,                    !- Vertex 53 Zcoordinate
    6.31,                     !- Vertex 54 Xcoordinate
    66.57,                    !- Vertex 54 Ycoordinate
    4.822,                    !- Vertex 54 Zcoordinate
    4.42,                     !- Vertex 55 Xcoordinate
    67.71,                    !- Vertex 55 Ycoordinate
    4.822,                    !- Vertex 55 Zcoordinate
    4.21,                     !- Vertex 56 Xcoordinate
    67.389,                   !- Vertex 56 Ycoordinate
    4.822,                    !- Vertex 56 Zcoordinate
    3.829,                    !- Vertex 57 Xcoordinate
    67.61,                    !- Vertex 57 Ycoordinate
    4.822,                    !- Vertex 57 Zcoordinate
    4.009,                    !- Vertex 58 Xcoordinate
    67.95,                    !- Vertex 58 Ycoordinate
    4.822,                    !- Vertex 58 Zcoordinate
    2.13,                     !- Vertex 59 Xcoordinate
    69.089,                   !- Vertex 59 Ycoordinate
    4.822,                    !- Vertex 59 Zcoordinate
    1.92,                     !- Vertex 60 Xcoordinate
    68.769,                   !- Vertex 60 Ycoordinate
    4.822,                    !- Vertex 60 Zcoordinate
    1.53,                     !- Vertex 61 Xcoordinate
    69,                       !- Vertex 61 Ycoordinate
    4.822,                    !- Vertex 61 Zcoordinate
    1.719,                    !- Vertex 62 Xcoordinate
    69.33,                    !- Vertex 62 Ycoordinate
    4.822,                    !- Vertex 62 Zcoordinate
    0.679,                    !- Vertex 63 Xcoordinate
    69.969,                   !- Vertex 63 Ycoordinate
    4.822,                    !- Vertex 63 Zcoordinate
    0.576,                    !- Vertex 64 Xcoordinate
    69.799,                   !- Vertex 64 Ycoordinate
    4.822,                    !- Vertex 64 Zcoordinate
    0.155,                    !- Vertex 65 Xcoordinate
    69.964,                   !- Vertex 65 Ycoordinate
    4.822,                    !- Vertex 65 Zcoordinate
    0.27,                     !- Vertex 66 Xcoordinate
    70.149,                   !- Vertex 66 Ycoordinate
    4.822,                    !- Vertex 66 Zcoordinate
    0,                        !- Vertex 67 Xcoordinate
    70.32,                    !- Vertex 67 Ycoordinate
    4.822,                    !- Vertex 67 Zcoordinate
    0.219,                    !- Vertex 68 Xcoordinate
    70.689,                   !- Vertex 68 Ycoordinate
    4.822,                    !- Vertex 68 Zcoordinate
    0.56,                     !- Vertex 69 Xcoordinate
    70.49,                    !- Vertex 69 Ycoordinate
    4.822,                    !- Vertex 69 Zcoordinate
    1.049,                    !- Vertex 70 Xcoordinate
    71.349,                   !- Vertex 70 Ycoordinate
    4.822,                    !- Vertex 70 Zcoordinate
    0.74,                     !- Vertex 71 Xcoordinate
    71.559,                   !- Vertex 71 Ycoordinate
    4.822,                    !- Vertex 71 Zcoordinate
    0.95,                     !- Vertex 72 Xcoordinate
    71.92,                    !- Vertex 72 Ycoordinate
    4.822,                    !- Vertex 72 Zcoordinate
    1.299,                    !- Vertex 73 Xcoordinate
    71.74,                    !- Vertex 73 Ycoordinate
    4.822,                    !- Vertex 73 Zcoordinate
    2.579,                    !- Vertex 74 Xcoordinate
    73.919,                   !- Vertex 74 Ycoordinate
    4.822,                    !- Vertex 74 Zcoordinate
    2.289,                    !- Vertex 75 Xcoordinate
    74.14,                    !- Vertex 75 Ycoordinate
    4.822,                    !- Vertex 75 Zcoordinate
    2.52,                     !- Vertex 76 Xcoordinate
    74.499,                   !- Vertex 76 Ycoordinate
    4.822,                    !- Vertex 76 Zcoordinate
    2.84,                     !- Vertex 77 Xcoordinate
    74.329,                   !- Vertex 77 Ycoordinate
    4.822,                    !- Vertex 77 Zcoordinate
    4.13,                     !- Vertex 78 Xcoordinate
    76.489,                   !- Vertex 78 Ycoordinate
    4.822,                    !- Vertex 78 Zcoordinate
    3.829,                    !- Vertex 79 Xcoordinate
    76.72,                    !- Vertex 79 Ycoordinate
    4.822,                    !- Vertex 79 Zcoordinate
    4.049,                    !- Vertex 80 Xcoordinate
    77.079,                   !- Vertex 80 Ycoordinate
    4.822,                    !- Vertex 80 Zcoordinate
    4.38,                     !- Vertex 81 Xcoordinate
    76.9,                     !- Vertex 81 Ycoordinate
    4.822,                    !- Vertex 81 Zcoordinate
    5.679,                    !- Vertex 82 Xcoordinate
    79.069,                   !- Vertex 82 Ycoordinate
    4.822,                    !- Vertex 82 Zcoordinate
    5.38,                     !- Vertex 83 Xcoordinate
    79.29,                    !- Vertex 83 Ycoordinate
    4.822,                    !- Vertex 83 Zcoordinate
    5.59,                     !- Vertex 84 Xcoordinate
    79.659,                   !- Vertex 84 Ycoordinate
    4.822,                    !- Vertex 84 Zcoordinate
    5.939,                    !- Vertex 85 Xcoordinate
    79.48,                    !- Vertex 85 Ycoordinate
    4.822,                    !- Vertex 85 Zcoordinate
    7.229,                    !- Vertex 86 Xcoordinate
    81.64,                    !- Vertex 86 Ycoordinate
    4.822,                    !- Vertex 86 Zcoordinate
    6.92,                     !- Vertex 87 Xcoordinate
    81.86,                    !- Vertex 87 Ycoordinate
    4.822,                    !- Vertex 87 Zcoordinate
    7.13,                     !- Vertex 88 Xcoordinate
    82.22,                    !- Vertex 88 Ycoordinate
    4.822,                    !- Vertex 88 Zcoordinate
    7.469,                    !- Vertex 89 Xcoordinate
    82.06,                    !- Vertex 89 Ycoordinate
    4.822,                    !- Vertex 89 Zcoordinate
    8.759,                    !- Vertex 90 Xcoordinate
    84.22,                    !- Vertex 90 Ycoordinate
    4.822,                    !- Vertex 90 Zcoordinate
    8.46,                     !- Vertex 91 Xcoordinate
    84.439,                   !- Vertex 91 Ycoordinate
    4.822,                    !- Vertex 91 Zcoordinate
    8.67,                     !- Vertex 92 Xcoordinate
    84.819,                   !- Vertex 92 Ycoordinate
    4.822,                    !- Vertex 92 Zcoordinate
    9.009,                    !- Vertex 93 Xcoordinate
    84.64,                    !- Vertex 93 Ycoordinate
    4.822,                    !- Vertex 93 Zcoordinate
    10.31,                    !- Vertex 94 Xcoordinate
    86.819,                   !- Vertex 94 Ycoordinate
    4.822,                    !- Vertex 94 Zcoordinate
    10,                       !- Vertex 95 Xcoordinate
    87.03,                    !- Vertex 95 Ycoordinate
    4.822,                    !- Vertex 95 Zcoordinate
    10.25,                    !- Vertex 96 Xcoordinate
    87.39,                    !- Vertex 96 Ycoordinate
    4.822,                    !- Vertex 96 Zcoordinate
    10.549,                   !- Vertex 97 Xcoordinate
    87.22,                    !- Vertex 97 Ycoordinate
    4.822,                    !- Vertex 97 Zcoordinate
    11.859,                   !- Vertex 98 Xcoordinate
    89.399,                   !- Vertex 98 Ycoordinate
    4.822,                    !- Vertex 98 Zcoordinate
    11.549,                   !- Vertex 99 Xcoordinate
    89.609,                   !- Vertex 99 Ycoordinate
    4.822,                    !- Vertex 99 Zcoordinate
    11.77,                    !- Vertex 100 Xcoordinate
    89.98,                    !- Vertex 100 Ycoordinate
    4.822,                    !- Vertex 100 Zcoordinate
    12.1,                     !- Vertex 101 Xcoordinate
    89.78,                    !- Vertex 101 Ycoordinate
    4.822,                    !- Vertex 101 Zcoordinate
    12.659,                   !- Vertex 102 Xcoordinate
    90.68,                    !- Vertex 102 Ycoordinate
    4.822,                    !- Vertex 102 Zcoordinate
    11.439,                   !- Vertex 103 Xcoordinate
    91.449,                   !- Vertex 103 Ycoordinate
    4.822,                    !- Vertex 103 Zcoordinate
    11.556,                   !- Vertex 104 Xcoordinate
    91.585,                   !- Vertex 104 Ycoordinate
    4.822,                    !- Vertex 104 Zcoordinate
    21.455,                   !- Vertex 105 Xcoordinate
    107.466,                  !- Vertex 105 Ycoordinate
    4.822,                    !- Vertex 105 Zcoordinate
    21.31,                    !- Vertex 106 Xcoordinate
    107.555,                  !- Vertex 106 Ycoordinate
    4.822,                    !- Vertex 106 Zcoordinate
    21.35,                    !- Vertex 107 Xcoordinate
    107.62,                   !- Vertex 107 Ycoordinate
    4.822,                    !- Vertex 107 Zcoordinate
    21.149,                   !- Vertex 108 Xcoordinate
    107.739,                  !- Vertex 108 Ycoordinate
    4.822,                    !- Vertex 108 Zcoordinate
    28.769,                   !- Vertex 109 Xcoordinate
    120,                      !- Vertex 109 Ycoordinate
    4.822,                    !- Vertex 109 Zcoordinate
    28.949,                   !- Vertex 110 Xcoordinate
    119.89,                   !- Vertex 110 Ycoordinate
    4.822,                    !- Vertex 110 Zcoordinate
    31.319,                   !- Vertex 111 Xcoordinate
    123.66,                   !- Vertex 111 Ycoordinate
    4.822,                    !- Vertex 111 Zcoordinate
    37.299,                   !- Vertex 112 Xcoordinate
    120.679,                  !- Vertex 112 Ycoordinate
    4.822,                    !- Vertex 112 Zcoordinate
    40.018,                   !- Vertex 113 Xcoordinate
    119.129,                  !- Vertex 113 Ycoordinate
    4.822,                    !- Vertex 113 Zcoordinate
    37.258,                   !- Vertex 114 Xcoordinate
    114.699,                  !- Vertex 114 Ycoordinate
    4.822,                    !- Vertex 114 Zcoordinate
    42.339,                   !- Vertex 115 Xcoordinate
    111.448,                  !- Vertex 115 Ycoordinate
    4.822,                    !- Vertex 115 Zcoordinate
    40.044,                   !- Vertex 116 Xcoordinate
    107.744,                  !- Vertex 116 Ycoordinate
    4.822,                    !- Vertex 116 Zcoordinate
    34.717,                   !- Vertex 117 Xcoordinate
    99.21,                    !- Vertex 117 Ycoordinate
    4.822,                    !- Vertex 117 Zcoordinate
    27.129,                   !- Vertex 118 Xcoordinate
    104.039,                  !- Vertex 118 Ycoordinate
    4.822,                    !- Vertex 118 Zcoordinate
    17.359,                   !- Vertex 119 Xcoordinate
    88.28,                    !- Vertex 119 Ycoordinate
    4.822,                    !- Vertex 119 Zcoordinate
    22.738,                   !- Vertex 120 Xcoordinate
    84.949,                   !- Vertex 120 Ycoordinate
    4.822,                    !- Vertex 120 Zcoordinate
    22.305,                   !- Vertex 121 Xcoordinate
    84.207,                   !- Vertex 121 Ycoordinate
    4.822,                    !- Vertex 121 Zcoordinate
    21.979,                   !- Vertex 122 Xcoordinate
    83.7,                     !- Vertex 122 Ycoordinate
    4.822,                    !- Vertex 122 Zcoordinate
    22.259,                   !- Vertex 123 Xcoordinate
    83.519,                   !- Vertex 123 Ycoordinate
    4.822,                    !- Vertex 123 Zcoordinate
    22.09,                    !- Vertex 124 Xcoordinate
    83.239,                   !- Vertex 124 Ycoordinate
    4.822,                    !- Vertex 124 Zcoordinate
    21.81,                    !- Vertex 125 Xcoordinate
    83.419,                   !- Vertex 125 Ycoordinate
    4.822,                    !- Vertex 125 Zcoordinate
    20.38,                    !- Vertex 126 Xcoordinate
    81.169,                   !- Vertex 126 Ycoordinate
    4.822,                    !- Vertex 126 Zcoordinate
    20.659,                   !- Vertex 127 Xcoordinate
    80.989,                   !- Vertex 127 Ycoordinate
    4.822,                    !- Vertex 127 Zcoordinate
    20.479,                   !- Vertex 128 Xcoordinate
    80.71,                    !- Vertex 128 Ycoordinate
    4.822,                    !- Vertex 128 Zcoordinate
    20.2,                     !- Vertex 129 Xcoordinate
    80.89,                    !- Vertex 129 Ycoordinate
    4.822,                    !- Vertex 129 Zcoordinate
    18.77,                    !- Vertex 130 Xcoordinate
    78.63,                    !- Vertex 130 Ycoordinate
    4.822,                    !- Vertex 130 Zcoordinate
    19.049,                   !- Vertex 131 Xcoordinate
    78.46,                    !- Vertex 131 Ycoordinate