!- Windows Line endings 

Version,
    24.2;                     !- Version Identifier

SimulationControl,
    No,                       !- Do Zone Sizing Calculation
    No,                       !- Do System Sizing Calculation
    No,                       !- Do Plant Sizing Calculation
    No,                       !- Run Simulation for Sizing Periods
    Yes,                      !- Run Simulation for Weather File Run Periods
    No,                       !- Do HVAC Sizing Simulation for Sizing Periods
    1;                        !- Maximum Number of HVAC Sizing Simulation Passes

BUILDING,
    Pand.0599100000630427,    !- Name
    0,                        !- North Axis
    City,                     !- Terrain
    0.04,                     !- Loads Convergence Tolerance Value
    0.4,                      !- Temperature Convergence Tolerance Value
    FullExterior,             !- Solar Distribution
    25,                       !- Maximum Number of Warmup Days
    1;                        !- Minimum Number of Warmup Days

Timestep,
    6;                        !- Number of Timesteps per Hour

Site:Location,
    Rotterdam.The.Hague.AP_ZH_NLD Design_Conditions,    !- Name
    51.96,                    !- Latitude
    4.45,                     !- Longitude
    1,                        !- Time Zone
    -4.5;                     !- Elevation

RunPeriod,
    Run Period 1,             !- Name
    1,                        !- Begin Month
    1,                        !- Begin Day of Month
    ,                         !- Begin Year
    12,                       !- End Month
    31,                       !- End Day of Month
    ,                         !- End Year
    ,                         !- Day of Week for Start Day
    Yes,                      !- Use Weather File Holidays and Special Days
    Yes,                      !- Use Weather File Daylight Saving Period
    No,                       !- Apply Weekend Holiday Rule
    Yes,                      !- Use Weather File Rain Indicators
    Yes,                      !- Use Weather File Snow Indicators
    No,                       !- Treat Weather as Actual
    Hour24;                   !- First Hour Interpolation Starting Values

RunPeriodControl:DaylightSavingTime,
    Last Sunday in March,     !- Start Date
    Last Sunday in October;    !- End Date

SITE:GROUNDTEMPERATURE:BUILDINGSURFACE,
    18,                       !- January Ground Temperature
    18,                       !- February Ground Temperature
    18,                       !- March Ground Temperature
    18,                       !- April Ground Temperature
    18,                       !- May Ground Temperature
    18,                       !- June Ground Temperature
    18,                       !- July Ground Temperature
    18,                       !- August Ground Temperature
    18,                       !- September Ground Temperature
    18,                       !- October Ground Temperature
    18,                       !- November Ground Temperature
    18;                       !- December Ground Temperature

SCHEDULETYPELIMITS,
    Temperature,              !- Name
    -100,                     !- Lower Limit Value
    100,                      !- Upper Limit Value
    CONTINUOUS,               !- Numeric Type
    Temperature;              !- Unit Type

SCHEDULETYPELIMITS,
    Fraction,                 !- Name
    0,                        !- Lower Limit Value
    1,                        !- Upper Limit Value
    CONTINUOUS,               !- Numeric Type
    Dimensionless;            !- Unit Type

SCHEDULETYPELIMITS,
    Control Type,             !- Name
    0,                        !- Lower Limit Value
    4,                        !- Upper Limit Value
    DISCRETE,                 !- Numeric Type
    Dimensionless;            !- Unit Type

SCHEDULE:COMPACT,
    HeatingSetpoint_Zone_0599100000630427,    !- Name
    Temperature,              !- Schedule Type Limits Name
    Through: 12/31,           !- Field 1
    For: AllDays,             !- Field 2
    Until: 24:00,             !- Field 3
    21.0;                     !- Field 4

SCHEDULE:COMPACT,
    CoolingSetpoint_Zone_0599100000630427,    !- Name
    Temperature,              !- Schedule Type Limits Name
    Through: 12/31,           !- Field 1
    For: AllDays,             !- Field 2
    Until: 24:00,             !- Field 3
    24.0;                     !- Field 4

SCHEDULE:COMPACT,
    DualSetpointControlType,    !- Name
    Control Type,             !- Schedule Type Limits Name
    Through: 12/31,           !- Field 1
    For: AllDays,             !- Field 2
    Until: 24:00,             !- Field 3
    4;                        !- Field 4

SCHEDULE:COMPACT,
    AlwaysOn,                 !- Name
    Fraction,                 !- Schedule Type Limits Name
    Through: 12/31,           !- Field 1
    For: AllDays,             !- Field 2
    Until: 24:00,             !- Field 3
    1.0;                      !- Field 4

MATERIAL,
    G.TI.1946,                !- Name
    MediumSmooth,             !- Roughness
    0.15,                     !- Thickness
    1,                        !- Conductivity
    540,                      !- Density
    1210,                     !- Specific Heat
    0.9,                      !- Thermal Absorptance
    0.7,                      !- Solar Absorptance
    0.7;                      !- Visible Absorptance

MATERIAL,
    F.TI.1946,                !- Name
    Rough,                    !- Roughness
    0.3,                      !- Thickness
    0.8571428571428572,       !- Conductivity
    1920,                     !- Density
    840,                      !- Specific Heat
    0.9,                      !- Thermal Absorptance
    0.7,                      !- Solar Absorptance
    0.7;                      !- Visible Absorptance

MATERIAL,
    R.TI.1946,                !- Name
    MediumRough,              !- Roughness
    0.2,                      !- Thickness
    0.1,                      !- Conductivity
    1500,                     !- Density
    1000,                     !- Specific Heat
    0.9,                      !- Thermal Absorptance
    0.7,                      !- Solar Absorptance
    0.7;                      !- Visible Absorptance

WINDOWMATERIAL:SIMPLEGLAZINGSYSTEM,
    W.TI.1946,                !- Name
    2.9,                      !- UFactor
    0.6,                      !- Solar Heat Gain Coefficient
    0.6;                      !- Visible Transmittance

CONSTRUCTION,
    C_G,                      !- Name
    G.TI.1946;                !- Outside Layer

CONSTRUCTION,
    C_F,                      !- Name
    F.TI.1946;                !- Outside Layer

CONSTRUCTION,
    C_R,                      !- Name
    R.TI.1946;                !- Outside Layer

GlobalGeometryRules,
    UpperLeftCorner,          !- Starting Vertex Position
    Counterclockwise,         !- Vertex Entry Direction
    World,                    !- Coordinate System
    World,                    !- Daylighting Reference Point Coordinate System
    Relative;                 !- Rectangular Surface Coordinate System

ZONE,
    Zone_0599100000630427,    !- Name
    0,                        !- Direction of Relative North
    0,                        !- X Origin
    0,                        !- Y Origin
    0,                        !- Z Origin
    1,                        !- Type
    1,                        !- Multiplier
    Autocalculate,            !- Ceiling Height
    Autocalculate,            !- Volume
    autocalculate,            !- Floor Area
    ,                         !- Zone Inside Convection Algorithm
    ,                         !- Zone Outside Convection Algorithm
    Yes;                      !- Part of Total Floor Area

BUILDINGSURFACE:DETAILED,
    G_0,                      !- Name
    Floor,                    !- Surface Type
    C_G,                      !- Construction Name
    Zone_0599100000630427,    !- Zone Name
    ,                         !- Space Name
    Ground,                   !- Outside Boundary Condition
    ,                         !- Outside Boundary Condition Object
    SunExposed,               !- Sun Exposure
    WindExposed,              !- Wind Exposure
    0.5,                      !- View Factor to Ground
    35,                       !- Number of Vertices
    3.599,                    !- Vertex 1 Xcoordinate
    1.45,                     !- Vertex 1 Ycoordinate
    0,                        !- Vertex 1 Zcoordinate
    0,                        !- Vertex 2 Xcoordinate
    2.33,                     !- Vertex 2 Ycoordinate
    0,                        !- Vertex 2 Zcoordinate
    2.45,                     !- Vertex 3 Xcoordinate
    13.371,                   !- Vertex 3 Ycoordinate
    0,                        !- Vertex 3 Zcoordinate
    4.589,                    !- Vertex 4 Xcoordinate
    12.881,                   !- Vertex 4 Ycoordinate
    0,                        !- Vertex 4 Zcoordinate
    5.349,                    !- Vertex 5 Xcoordinate
    16.651,                   !- Vertex 5 Ycoordinate
    0,                        !- Vertex 5 Zcoordinate
    5.599,                    !- Vertex 6 Xcoordinate
    16.571,                   !- Vertex 6 Ycoordinate
    0,                        !- Vertex 6 Zcoordinate
    5.704,                    !- Vertex 7 Xcoordinate
    17.026,                   !- Vertex 7 Ycoordinate
    0,                        !- Vertex 7 Zcoordinate
    6.169,                    !- Vertex 8 Xcoordinate
    19.063,                   !- Vertex 8 Ycoordinate
    0,                        !- Vertex 8 Zcoordinate
    6.247,                    !- Vertex 9 Xcoordinate
    18.926,                   !- Vertex 9 Ycoordinate
    0,                        !- Vertex 9 Zcoordinate
    6.481,                    !- Vertex 10 Xcoordinate
    20.32,                    !- Vertex 10 Ycoordinate
    0,                        !- Vertex 10 Zcoordinate
    6.75,                     !- Vertex 11 Xcoordinate
    21.601,                   !- Vertex 11 Ycoordinate
    0,                        !- Vertex 11 Zcoordinate
    5.099,                    !- Vertex 12 Xcoordinate
    21.97,                    !- Vertex 12 Ycoordinate
    0,                        !- Vertex 12 Zcoordinate
    7.06,                     !- Vertex 13 Xcoordinate
    30.741,                   !- Vertex 13 Ycoordinate
    0,                        !- Vertex 13 Zcoordinate
    15.21,                    !- Vertex 14 Xcoordinate
    28.83,                    !- Vertex 14 Ycoordinate
    0,                        !- Vertex 14 Zcoordinate
    13.39,                    !- Vertex 15 Xcoordinate
    20.08,                    !- Vertex 15 Ycoordinate
    0,                        !- Vertex 15 Zcoordinate
    14.52,                    !- Vertex 16 Xcoordinate
    19.821,                   !- Vertex 16 Ycoordinate
    0,                        !- Vertex 16 Zcoordinate
    14.06,                    !- Vertex 17 Xcoordinate
    17.521,                   !- Vertex 17 Ycoordinate
    0,                        !- Vertex 17 Zcoordinate
    21.029,                   !- Vertex 18 Xcoordinate
    15.871,                   !- Vertex 18 Ycoordinate
    0,                        !- Vertex 18 Zcoordinate
    21.44,                    !- Vertex 19 Xcoordinate
    17.521,                   !- Vertex 19 Ycoordinate
    0,                        !- Vertex 19 Zcoordinate
    24.849,                   !- Vertex 20 Xcoordinate
    16.67,                    !- Vertex 20 Ycoordinate
    0,                        !- Vertex 20 Zcoordinate
    24.32,                    !- Vertex 21 Xcoordinate
    13.991,                   !- Vertex 21 Ycoordinate
    0,                        !- Vertex 21 Zcoordinate
    30.779,                   !- Vertex 22 Xcoordinate
    12.42,                    !- Vertex 22 Ycoordinate
    0,                        !- Vertex 22 Zcoordinate
    31.399,                   !- Vertex 23 Xcoordinate
    15.17,                    !- Vertex 23 Ycoordinate
    0,                        !- Vertex 23 Zcoordinate
    35.76,                    !- Vertex 24 Xcoordinate
    14.11,                    !- Vertex 24 Ycoordinate
    0,                        !- Vertex 24 Zcoordinate
    35.13,                    !- Vertex 25 Xcoordinate
    11.481,                   !- Vertex 25 Ycoordinate
    0,                        !- Vertex 25 Zcoordinate
    41.169,                   !- Vertex 26 Xcoordinate
    10.05,                    !- Vertex 26 Ycoordinate
    0,                        !- Vertex 26 Zcoordinate
    40.14,                    !- Vertex 27 Xcoordinate
    5.17,                     !- Vertex 27 Ycoordinate
    0,                        !- Vertex 27 Zcoordinate
    38.099,                   !- Vertex 28 Xcoordinate
    5.64,                     !- Vertex 28 Ycoordinate
    0,                        !- Vertex 28 Zcoordinate
    36.799,                   !- Vertex 29 Xcoordinate
    0,                        !- Vertex 29 Ycoordinate
    0,                        !- Vertex 29 Zcoordinate
    30.566,                   !- Vertex 30 Xcoordinate
    1.475,                    !- Vertex 30 Ycoordinate
    0,                        !- Vertex 30 Zcoordinate
    30.523,                   !- Vertex 31 Xcoordinate
    1.827,                    !- Vertex 31 Ycoordinate
    0,                        !- Vertex 31 Zcoordinate
    30.789,                   !- Vertex 32 Xcoordinate
    3.2,                      !- Vertex 32 Ycoordinate
    0,                        !- Vertex 32 Zcoordinate
    9.899,                    !- Vertex 33 Xcoordinate
    8.09,                     !- Vertex 33 Ycoordinate
    0,                        !- Vertex 33 Zcoordinate
    9.14,                     !- Vertex 34 Xcoordinate
    4.69,                     !- Vertex 34 Ycoordinate
    0,                        !- Vertex 34 Zcoordinate
    4.64,                     !- Vertex 35 Xcoordinate
    5.78,                     !- Vertex 35 Ycoordinate
    0;                        !- Vertex 35 Zcoordinate

BUILDINGSURFACE:DETAILED,
    F_1,                      !- Name
    Wall,                     !- Surface Type
    C_F,                      !- Construction Name
    Zone_0599100000630427,    !- Zone Name
    ,                         !- Space Name
    Outdoors,                 !- Outside Boundary Condition
    ,                         !- Outside Boundary Condition Object
    SunExposed,               !- Sun Exposure
    WindExposed,              !- Wind Exposure
    0.5,                      !- View Factor to Ground
    4,                        !- Number of Vertices
    35.13,                    !- Vertex 1 Xcoordinate
    11.481,                   !- Vertex 1 Ycoordinate
    8.901,                    !- Vertex 1 Zcoordinate
    35.13,                    !- Vertex 2 Xcoordinate
    11.481,                   !- Vertex 2 Ycoordinate
    0,                        !- Vertex 2 Zcoordinate
    35.76,                    !- Vertex 3 Xcoordinate
    14.11,                    !- Vertex 3 Ycoordinate
    0,                        !- Vertex 3 Zcoordinate
    35.76,                    !- Vertex 4 Xcoordinate
    14.11,                    !- Vertex 4 Ycoordinate
    8.901;                    !- Vertex 4 Zcoordinate

BUILDINGSURFACE:DETAILED,
    F_2,                      !- Name
    Wall,                     !- Surface Type
    C_F,                      !- Construction Name
    Zone_0599100000630427,    !- Zone Name
    ,                         !- Space Name
    Outdoors,                 !- Outside Boundary Condition
    ,                         !- Outside Boundary Condition Object
    SunExposed,               !- Sun Exposure
    WindExposed,              !- Wind Exposure
    0.5,                      !- View Factor to Ground
    4,                        !- Number of Vertices
    41.169,                   !- Vertex 1 Xcoordinate
    10.05,                    !- Vertex 1 Ycoordinate
    8.901,                    !- Vertex 1 Zcoordinate
    41.169,                   !- Vertex 2 Xcoordinate
    10.05,                    !- Vertex 2 Ycoordinate
    0,                        !- Vertex 2 Zcoordinate
    35.13,                    !- Vertex 3 Xcoordinate
    11.481,                   !- Vertex 3 Ycoordinate
    0,                        !- Vertex 3 Zcoordinate
    35.13,                    !- Vertex 4 Xcoordinate
    11.481,                   !- Vertex 4 Ycoordinate
    8.901;                    !- Vertex 4 Zcoordinate

BUILDINGSURFACE:DETAILED,
    F_3,                      !- Name
    Wall,                     !- Surface Type
    C_F,                      !- Construction Name
    Zone_0599100000630427,    !- Zone Name
    ,                         !- Space Name
    Outdoors,                 !- Outside Boundary Condition
    ,                         !- Outside Boundary Condition Object
    SunExposed,               !- Sun Exposure
    WindExposed,              !- Wind Exposure
    0.5,                      !- View Factor to Ground
    4,                        !- Number of Vertices
    31.399,                   !- Vertex 1 Xcoordinate
    15.17,                    !- Vertex 1 Ycoordinate
    8.901,                    !- Vertex 1 Zcoordinate
    31.399,                   !- Vertex 2 Xcoordinate
    15.17,                    !- Vertex 2 Ycoordinate
    0,                        !- Vertex 2 Zcoordinate
    30.779,                   !- Vertex 3 Xcoordinate
    12.42,                    !- Vertex 3 Ycoordinate
    0,                        !- Vertex 3 Zcoordinate
    30.779,                   !- Vertex 4 Xcoordinate
    12.42,                    !- Vertex 4 Ycoordinate
    8.901;                    !- Vertex 4 Zcoordinate

BUILDINGSURFACE:DETAILED,
    F_4,                      !- Name
    Wall,                     !- Surface Type
    C_F,                      !- Construction Name
    Zone_0599100000630427,    !- Zone Name
    ,                         !- Space Name
    Outdoors,                 !- Outside Boundary Condition
    ,                         !- Outside Boundary Condition Object
    SunExposed,               !- Sun Exposure
    WindExposed,              !- Wind Exposure
    0.5,                      !- View Factor to Ground
    4,                        !- Number of Vertices
    35.76,                    !- Vertex 1 Xcoordinate
    14.11,                    !- Vertex 1 Ycoordinate
    8.901,                    !- Vertex 1 Zcoordinate
    35.76,                    !- Vertex 2 Xcoordinate
    14.11,                    !- Vertex 2 Ycoordinate
    0,                        !- Vertex 2 Zcoordinate
    31.399,                   !- Vertex 3 Xcoordinate
    15.17,                    !- Vertex 3 Ycoordinate
    0,                        !- Vertex 3 Zcoordinate
    31.399,                   !- Vertex 4 Xcoordinate
    15.17,                    !- Vertex 4 Ycoordinate
    8.901;                    !- Vertex 4 Zcoordinate

BUILDINGSURFACE:DETAILED,
    F_5,                      !- Name
    Wall,                     !- Surface Type
    C_F,                      !- Construction Name
    Zone_0599100000630427,    !- Zone Name
    ,                         !- Space Name
    Outdoors,                 !- Outside Boundary Condition
    ,                         !- Outside Boundary Condition Object
    SunExposed,               !- Sun Exposure
    WindExposed,              !- Wind Exposure
    0.5,                      !- View Factor to Ground
    4,                        !- Number of Vertices
    21.029,                   !- Vertex 1 Xcoordinate
    15.871,                   !- Vertex 1 Ycoordinate
    8.901,                    !- Vertex 1 Zcoordinate
    21.029,                   !- Vertex 2 Xcoordinate
    15.871,                   !- Vertex 2 Ycoordinate
    0,                        !- Vertex 2 Zcoordinate
    14.06,                    !- Vertex 3 Xcoordinate
    17.521,                   !- Vertex 3 Ycoordinate
    0,                        !- Vertex 3 Zcoordinate
    14.06,                    !- Vertex 4 Xcoordinate
    17.521,                   !- Vertex 4 Ycoordinate
    8.901;                    !- Vertex 4 Zcoordinate

BUILDINGSURFACE:DETAILED,
    F_6,                      !- Name
    Wall,                     !- Surface Type
    C_F,                      !- Construction Name
    Zone_0599100000630427,    !- Zone Name
    ,                         !- Space Name
    Outdoors,                 !- Outside Boundary Condition
    ,                         !- Outside Boundary Condition Object
    SunExposed,               !- Sun Exposure
    WindExposed,              !- Wind Exposure
    0.5,                      !- View Factor to Ground
    4,                        !- Number of Vertices
    30.779,                   !- Vertex 1 Xcoordinate
    12.42,                    !- Vertex 1 Ycoordinate
    8.901,                    !- Vertex 1 Zcoordinate
    30.779,                   !- Vertex 2 Xcoordinate
    12.42,                    !- Vertex 2 Ycoordinate
    0,                        !- Vertex 2 Zcoordinate
    24.32,                    !- Vertex 3 Xcoordinate
    13.991,                   !- Vertex 3 Ycoordinate
    0,                        !- Vertex 3 Zcoordinate
    24.32,                    !- Vertex 4 Xcoordinate
    13.991,                   !- Vertex 4 Ycoordinate
    8.901;                    !- Vertex 4 Zcoordinate

BUILDINGSURFACE:DETAILED,
    F_7,                      !- Name
    Wall,                     !- Surface Type
    C_F,                      !- Construction Name
    Zone_0599100000630427,    !- Zone Name
    ,                         !- Space Name
    Outdoors,                 !- Outside Boundary Condition
    ,                         !- Outside Boundary Condition Object
    SunExposed,               !- Sun Exposure
    WindExposed,              !- Wind Exposure
    0.5,                      !- View Factor to Ground
    4,                        !- Number of Vertices
    9.14,                     !- Vertex 1 Xcoordinate
    4.69,                     !- Vertex 1 Ycoordinate
    8.901,                    !- Vertex 1 Zcoordinate
    9.14,                     !- Vertex 2 Xcoordinate
    4.69,                     !- Vertex 2 Ycoordinate
    0,                        !- Vertex 2 Zcoordinate
    9.899,                    !- Vertex 3 Xcoordinate
    8.09,                     !- Vertex 3 Ycoordinate
    0,                        !- Vertex 3 Zcoordinate
    9.899,                    !- Vertex 4 Xcoordinate
    8.09,                     !- Vertex 4 Ycoordinate
    8.901;                    !- Vertex 4 Zcoordinate

BUILDINGSURFACE:DETAILED,
    F_8,                      !- Name
    Wall,                     !- Surface Type
    C_F,                      !- Construction Name
    Zone_0599100000630427,    !- Zone Name
    ,                         !- Space Name
    Outdoors,                 !- Outside Boundary Condition
    ,                         !- Outside Boundary Condition Object
    SunExposed,               !- Sun Exposure
    WindExposed,              !- Wind Exposure
    0.5,                      !- View Factor to Ground
    4,                        !- Number of Vertices
    24.32,                    !- Vertex 1 Xcoordinate
    13.991,                   !- Vertex 1 Ycoordinate
    8.901,                    !- Vertex 1 Zcoordinate
    24.32,                    !- Vertex 2 Xcoordinate
    13.991,                   !- Vertex 2 Ycoordinate
    0,                        !- Vertex 2 Zcoordinate
    24.849,                   !- Vertex 3 Xcoordinate
    16.67,                    !- Vertex 3 Ycoordinate
    0,                        !- Vertex 3 Zcoordinate
    24.849,                   !- Vertex 4 Xcoordinate
    16.67,                    !- Vertex 4 Ycoordinate
    8.901;                    !- Vertex 4 Zcoordinate

BUILDINGSURFACE:DETAILED,
    F_9,                      !- Name
    Wall,                     !- Surface Type
    C_F,                      !- Construction Name
    Zone_0599100000630427,    !- Zone Name
    ,                         !- Space Name
    Outdoors,                 !- Outside Boundary Condition
    ,                         !- Outside Boundary Condition Object
    SunExposed,               !- Sun Exposure
    WindExposed,              !- Wind Exposure
    0.5,                      !- View Factor to Ground
    4,                        !- Number of Vertices
    0,                        !- Vertex 1 Xcoordinate
    2.33,                     !- Vertex 1 Ycoordinate
    8.901,                    !- Vertex 1 Zcoordinate
    0,                        !- Vertex 2 Xcoordinate
    2.33,                     !- Vertex 2 Ycoordinate
    0,                        !- Vertex 2 Zcoordinate
    3.599,                    !- Vertex 3 Xcoordinate
    1.45,                     !- Vertex 3 Ycoordinate
    0,                        !- Vertex 3 Zcoordinate
    3.599,                    !- Vertex 4 Xcoordinate
    1.45,                     !- Vertex 4 Ycoordinate
    8.901;                    !- Vertex 4 Zcoordinate

BUILDINGSURFACE:DETAILED,
    F_10,                     !- Name
    Wall,                     !- Surface Type
    C_F,                      !- Construction Name
    Zone_0599100000630427,    !- Zone Name
    ,                         !- Space Name
    Outdoors,                 !- Outside Boundary Condition
    ,                         !- Outside Boundary Condition Object
    SunExposed,               !- Sun Exposure
    WindExposed,              !- Wind Exposure
    0.5,                      !- View Factor to Ground
    4,                        !- Number of Vertices
    3.599,                    !- Vertex 1 Xcoordinate
    1.45,                     !- Vertex 1 Ycoordinate
    8.901,                    !- Vertex 1 Zcoordinate
    3.599,                    !- Vertex 2 Xcoordinate
    1.45,                     !- Vertex 2 Ycoordinate
    0,                        !- Vertex 2 Zcoordinate
    4.64,                     !- Vertex 3 Xcoordinate
    5.78,                     !- Vertex 3 Ycoordinate
    0,                        !- Vertex 3 Zcoordinate
    4.64,                     !- Vertex 4 Xcoordinate
    5.78,                     !- Vertex 4 Ycoordinate
    8.901;                    !- Vertex 4 Zcoordinate

BUILDINGSURFACE:DETAILED,
    F_11,                     !- Name
    Wall,                     !- Surface Type
    C_F,                      !- Construction Name
    Zone_0599100000630427,    !- Zone Name
    ,                         !- Space Name
    Outdoors,                 !- Outside Boundary Condition
    ,                         !- Outside Boundary Condition Object
    SunExposed,               !- Sun Exposure
    WindExposed,              !- Wind Exposure
    0.5,                      !- View Factor to Ground
    4,                        !- Number of Vertices
    24.849,                   !- Vertex 1 Xcoordinate
    16.67,                    !- Vertex 1 Ycoordinate
    8.901,                    !- Vertex 1 Zcoordinate
    24.849,                   !- Vertex 2 Xcoordinate
    16.67,                    !- Vertex 2 Ycoordinate
    0,                        !- Vertex 2 Zcoordinate
    21.44,                    !- Vertex 3 Xcoordinate
    17.521,                   !- Vertex 3 Ycoordinate
    0,                        !- Vertex 3 Zcoordinate
    21.44,                    !- Vertex 4 Xcoordinate
    17.521,                   !- Vertex 4 Ycoordinate
    8.901;                    !- Vertex 4 Zcoordinate

BUILDINGSURFACE:DETAILED,
    F_12,                     !- Name
    Wall,                     !- Surface Type
    C_F,                      !- Construction Name
    Zone_0599100000630427,    !- Zone Name
    ,                         !- Space Name
    Outdoors,                 !- Outside Boundary Condition
    ,                         !- Outside Boundary Condition Object
    SunExposed,               !- Sun Exposure
    WindExposed,              !- Wind Exposure
    0.5,                      !- View Factor to Ground
    4,                        !- Number of Vertices
    21.44,                    !- Vertex 1 Xcoordinate
    17.521,                   !- Vertex 1 Ycoordinate
    8.901,                    !- Vertex 1 Zcoordinate
    21.44,                    !- Vertex 2 Xcoordinate
    17.521,                   !- Vertex 2 Ycoordinate
    0,                        !- Vertex 2 Zcoordinate
    21.029,                   !- Vertex 3 Xcoordinate
    15.871,                   !- Vertex 3 Ycoordinate
    0,                        !- Vertex 3 Zcoordinate
    21.029,                   !- Vertex 4 Xcoordinate
    15.871,                   !- Vertex 4 Ycoordinate
    8.901;                    !- Vertex 4 Zcoordinate

BUILDINGSURFACE:DETAILED,
    F_13,                     !- Name
    Wall,                     !- Surface Type
    C_F,                      !- Construction Name
    Zone_0599100000630427,    !- Zone Name
    ,                         !- Space Name
    Outdoors,                 !- Outside Boundary Condition
    ,                         !- Outside Boundary Condition Object
    SunExposed,               !- Sun Exposure
    WindExposed,              !- Wind Exposure
    0.5,                      !- View Factor to Ground
    4,                        !- Number of Vertices
    4.589,                    !- Vertex 1 Xcoordinate
    12.881,                   !- Vertex 1 Ycoordinate
    8.901,                    !- Vertex 1 Zcoordinate
    4.589,                    !- Vertex 2 Xcoordinate
    12.881,                   !- Vertex 2 Ycoordinate
    0,                        !- Vertex 2 Zcoordinate
    2.45,                     !- Vertex 3 Xcoordinate
    13.371,                   !- Vertex 3 Ycoordinate
    0,                        !- Vertex 3 Zcoordinate
    2.45,                     !- Vertex 4 Xcoordinate
    13.371,                   !- Vertex 4 Ycoordinate