!- Windows Line endings 

Version,
    24.2;                     !- Version Identifier

SimulationControl,
    No,                       !- Do Zone Sizing Calculation
    No,                       !- Do System Sizing Calculation
    No,                       !- Do Plant Sizing Calculation
    No,                       !- Run Simulation for Sizing Periods
    Yes,                      !- Run Simulation for Weather File Run Periods
    No,                       !- Do HVAC Sizing Simulation for Sizing Periods
    1;                        !- Maximum Number of HVAC Sizing Simulation Passes

BUILDING,
    Pand.0599100000013914,    !- Name
    0,                        !- North Axis
    City,                     !- Terrain
    0.04,                     !- Loads Convergence Tolerance Value
    0.4,                      !- Temperature Convergence Tolerance Value
    FullExterior,             !- Solar Distribution
    25,                       !- Maximum Number of Warmup Days
    1;                        !- Minimum Number of Warmup Days

Timestep,
    6;                        !- Number of Timesteps per Hour

Site:Location,
    Rotterdam.The.Hague.AP_ZH_NLD Design_Conditions,    !- Name
    51.96,                    !- Latitude
    4.45,                     !- Longitude
    1,                        !- Time Zone
    -4.5;                     !- Elevation

RunPeriod,
    Run Period 1,             !- Name
    1,                        !- Begin Month
    1,                        !- Begin Day of Month
    ,                         !- Begin Year
    12,                       !- End Month
    31,                       !- End Day of Month
    ,                         !- End Year
    ,                         !- Day of Week for Start Day
    Yes,                      !- Use Weather File Holidays and Special Days
    Yes,                      !- Use Weather File Daylight Saving Period
    No,                       !- Apply Weekend Holiday Rule
    Yes,                      !- Use Weather File Rain Indicators
    Yes,                      !- Use Weather File Snow Indicators
    No,                       !- Treat Weather as Actual
    Hour24;                   !- First Hour Interpolation Starting Values

RunPeriodControl:DaylightSavingTime,
    Last Sunday in March,     !- Start Date
    Last Sunday in October;    !- End Date

SITE:GROUNDTEMPERATURE:BUILDINGSURFACE,
    18,                       !- January Ground Temperature
    18,                       !- February Ground Temperature
    18,                       !- March Ground Temperature
    18,                       !- April Ground Temperature
    18,                       !- May Ground Temperature
    18,                       !- June Ground Temperature
    18,                       !- July Ground Temperature
    18,                       !- August Ground Temperature
    18,                       !- September Ground Temperature
    18,                       !- October Ground Temperature
    18,                       !- November Ground Temperature
    18;                       !- December Ground Temperature

SCHEDULETYPELIMITS,
    Temperature,              !- Name
    -100,                     !- Lower Limit Value
    100,                      !- Upper Limit Value
    CONTINUOUS,               !- Numeric Type
    Temperature;              !- Unit Type

SCHEDULETYPELIMITS,
    Fraction,                 !- Name
    0,                        !- Lower Limit Value
    1,                        !- Upper Limit Value
    CONTINUOUS,               !- Numeric Type
    Dimensionless;            !- Unit Type

SCHEDULETYPELIMITS,
    Control Type,             !- Name
    0,                        !- Lower Limit Value
    4,                        !- Upper Limit Value
    DISCRETE,                 !- Numeric Type
    Dimensionless;            !- Unit Type

SCHEDULE:COMPACT,
    HeatingSetpoint_Zone_0599100000013914,    !- Name
    Temperature,              !- Schedule Type Limits Name
    Through: 12/31,           !- Field 1
    For: AllDays,             !- Field 2
    Until: 24:00,             !- Field 3
    21.0;                     !- Field 4

SCHEDULE:COMPACT,
    CoolingSetpoint_Zone_0599100000013914,    !- Name
    Temperature,              !- Schedule Type Limits Name
    Through: 12/31,           !- Field 1
    For: AllDays,             !- Field 2
    Until: 24:00,             !- Field 3
    24.0;                     !- Field 4

SCHEDULE:COMPACT,
    DualSetpointControlType,    !- Name
    Control Type,             !- Schedule Type Limits Name
    Through: 12/31,           !- Field 1
    For: AllDays,             !- Field 2
    Until: 24:00,             !- Field 3
    4;                        !- Field 4

SCHEDULE:COMPACT,
    AlwaysOn,                 !- Name
    Fraction,                 !- Schedule Type Limits Name
    Through: 12/31,           !- Field 1
    For: AllDays,             !- Field 2
    Until: 24:00,             !- Field 3
    1.0;                      !- Field 4

MATERIAL,
    G.D.1975-1991,            !- Name
    MediumSmooth,             !- Roughness
    0.15,                     !- Thickness
    2.884615e-01,             !- Conductivity
    540,                      !- Density
    1210,                     !- Specific Heat
    0.9,                      !- Thermal Absorptance
    0.7,                      !- Solar Absorptance
    0.7;                      !- Visible Absorptance

MATERIAL,
    F.D.1975-1991,            !- Name
    Rough,                    !- Roughness
    0.3,                      !- Thickness
    2.307692e-01,             !- Conductivity
    1920,                     !- Density
    840,                      !- Specific Heat
    0.9,                      !- Thermal Absorptance
    0.7,                      !- Solar Absorptance
    0.7;                      !- Visible Absorptance

MATERIAL,
    R.D.1975-1991,            !- Name
    MediumRough,              !- Roughness
    0.2,                      !- Thickness
    1.538462e-01,             !- Conductivity
    1500,                     !- Density
    1000,                     !- Specific Heat
    0.9,                      !- Thermal Absorptance
    0.7,                      !- Solar Absorptance
    0.7;                      !- Visible Absorptance

WINDOWMATERIAL:SIMPLEGLAZINGSYSTEM,
    W.D.1975-1991,            !- Name
    2.9,                      !- UFactor
    0.6,                      !- Solar Heat Gain Coefficient
    0.6;                      !- Visible Transmittance

CONSTRUCTION,
    C_G,                      !- Name
    G.D.1975-1991;            !- Outside Layer

CONSTRUCTION,
    C_F,                      !- Name
    F.D.1975-1991;            !- Outside Layer

CONSTRUCTION,
    C_R,                      !- Name
    R.D.1975-1991;            !- Outside Layer

GlobalGeometryRules,
    UpperLeftCorner,          !- Starting Vertex Position
    Counterclockwise,         !- Vertex Entry Direction
    World,                    !- Coordinate System
    World,                    !- Daylighting Reference Point Coordinate System
    Relative;                 !- Rectangular Surface Coordinate System

ZONE,
    Zone_0599100000013914,    !- Name
    0,                        !- Direction of Relative North
    0,                        !- X Origin
    0,                        !- Y Origin
    0,                        !- Z Origin
    1,                        !- Type
    1,                        !- Multiplier
    Autocalculate,            !- Ceiling Height
    Autocalculate,            !- Volume
    autocalculate,            !- Floor Area
    ,                         !- Zone Inside Convection Algorithm
    ,                         !- Zone Outside Convection Algorithm
    Yes;                      !- Part of Total Floor Area

BUILDINGSURFACE:DETAILED,
    G_0,                      !- Name
    Floor,                    !- Surface Type
    C_G,                      !- Construction Name
    Zone_0599100000013914,    !- Zone Name
    ,                         !- Space Name
    Ground,                   !- Outside Boundary Condition
    ,                         !- Outside Boundary Condition Object
    SunExposed,               !- Sun Exposure
    WindExposed,              !- Wind Exposure
    0.5,                      !- View Factor to Ground
    73,                       !- Number of Vertices
    1.263,                    !- Vertex 1 Xcoordinate
    11.762,                   !- Vertex 1 Ycoordinate
    0,                        !- Vertex 1 Zcoordinate
    1.531,                    !- Vertex 2 Xcoordinate
    11.802,                   !- Vertex 2 Ycoordinate
    0,                        !- Vertex 2 Zcoordinate
    1.802,                    !- Vertex 3 Xcoordinate
    11.801,                   !- Vertex 3 Ycoordinate
    0,                        !- Vertex 3 Zcoordinate
    1.991,                    !- Vertex 4 Xcoordinate
    12.817,                   !- Vertex 4 Ycoordinate
    0,                        !- Vertex 4 Zcoordinate
    2.811,                    !- Vertex 5 Xcoordinate
    16.342,                   !- Vertex 5 Ycoordinate
    0,                        !- Vertex 5 Zcoordinate
    5.13,                     !- Vertex 6 Xcoordinate
    15.908,                   !- Vertex 6 Ycoordinate
    0,                        !- Vertex 6 Zcoordinate
    5.678,                    !- Vertex 7 Xcoordinate
    18.861,                   !- Vertex 7 Ycoordinate
    0,                        !- Vertex 7 Zcoordinate
    10.028,                   !- Vertex 8 Xcoordinate
    18.101,                   !- Vertex 8 Ycoordinate
    0,                        !- Vertex 8 Zcoordinate
    10.143,                   !- Vertex 9 Xcoordinate
    18.369,                   !- Vertex 9 Ycoordinate
    0,                        !- Vertex 9 Zcoordinate
    10.299,                   !- Vertex 10 Xcoordinate
    18.614,                   !- Vertex 10 Ycoordinate
    0,                        !- Vertex 10 Zcoordinate
    10.496,                   !- Vertex 11 Xcoordinate
    18.83,                    !- Vertex 11 Ycoordinate
    0,                        !- Vertex 11 Zcoordinate
    10.725,                   !- Vertex 12 Xcoordinate
    19.01,                    !- Vertex 12 Ycoordinate
    0,                        !- Vertex 12 Zcoordinate
    10.982,                   !- Vertex 13 Xcoordinate
    19.15,                    !- Vertex 13 Ycoordinate
    0,                        !- Vertex 13 Zcoordinate
    11.258,                   !- Vertex 14 Xcoordinate
    19.244,                   !- Vertex 14 Ycoordinate
    0,                        !- Vertex 14 Zcoordinate
    11.544,                   !- Vertex 15 Xcoordinate
    19.289,                   !- Vertex 15 Ycoordinate
    0,                        !- Vertex 15 Zcoordinate
    11.837,                   !- Vertex 16 Xcoordinate
    19.288,                   !- Vertex 16 Ycoordinate
    0,                        !- Vertex 16 Zcoordinate
    12.124,                   !- Vertex 17 Xcoordinate
    19.236,                   !- Vertex 17 Ycoordinate
    0,                        !- Vertex 17 Zcoordinate
    12.398,                   !- Vertex 18 Xcoordinate
    19.138,                   !- Vertex 18 Ycoordinate
    0,                        !- Vertex 18 Zcoordinate
    12.652,                   !- Vertex 19 Xcoordinate
    18.996,                   !- Vertex 19 Ycoordinate
    0,                        !- Vertex 19 Zcoordinate
    12.879,                   !- Vertex 20 Xcoordinate
    18.812,                   !- Vertex 20 Ycoordinate
    0,                        !- Vertex 20 Zcoordinate
    13.071,                   !- Vertex 21 Xcoordinate
    18.593,                   !- Vertex 21 Ycoordinate
    0,                        !- Vertex 21 Zcoordinate
    13.225,                   !- Vertex 22 Xcoordinate
    18.346,                   !- Vertex 22 Ycoordinate
    0,                        !- Vertex 22 Zcoordinate
    13.336,                   !- Vertex 23 Xcoordinate
    18.075,                   !- Vertex 23 Ycoordinate
    0,                        !- Vertex 23 Zcoordinate
    13.398,                   !- Vertex 24 Xcoordinate
    17.791,                   !- Vertex 24 Ycoordinate
    0,                        !- Vertex 24 Zcoordinate
    13.413,                   !- Vertex 25 Xcoordinate
    17.5,                     !- Vertex 25 Ycoordinate
    0,                        !- Vertex 25 Zcoordinate
    13.379,                   !- Vertex 26 Xcoordinate
    17.21,                    !- Vertex 26 Ycoordinate
    0,                        !- Vertex 26 Zcoordinate
    12.849,                   !- Vertex 27 Xcoordinate
    14.471,                   !- Vertex 27 Ycoordinate
    0,                        !- Vertex 27 Zcoordinate
    13.182,                   !- Vertex 28 Xcoordinate
    14.333,                   !- Vertex 28 Ycoordinate
    0,                        !- Vertex 28 Zcoordinate
    13.491,                   !- Vertex 29 Xcoordinate
    14.147,                   !- Vertex 29 Ycoordinate
    0,                        !- Vertex 29 Zcoordinate
    13.768,                   !- Vertex 30 Xcoordinate
    13.918,                   !- Vertex 30 Ycoordinate
    0,                        !- Vertex 30 Zcoordinate
    14.01,                    !- Vertex 31 Xcoordinate
    13.65,                    !- Vertex 31 Ycoordinate
    0,                        !- Vertex 31 Zcoordinate
    14.116,                   !- Vertex 32 Xcoordinate
    13.502,                   !- Vertex 32 Ycoordinate
    0,                        !- Vertex 32 Zcoordinate
    14.315,                   !- Vertex 33 Xcoordinate
    13.138,                   !- Vertex 33 Ycoordinate
    0,                        !- Vertex 33 Zcoordinate
    14.449,                   !- Vertex 34 Xcoordinate
    12.744,                   !- Vertex 34 Ycoordinate
    0,                        !- Vertex 34 Zcoordinate
    14.514,                   !- Vertex 35 Xcoordinate
    12.333,                   !- Vertex 35 Ycoordinate
    0,                        !- Vertex 35 Zcoordinate
    14.509,                   !- Vertex 36 Xcoordinate
    11.919,                   !- Vertex 36 Ycoordinate
    0,                        !- Vertex 36 Zcoordinate
    14.435,                   !- Vertex 37 Xcoordinate
    11.51,                    !- Vertex 37 Ycoordinate
    0,                        !- Vertex 37 Zcoordinate
    14.29,                    !- Vertex 38 Xcoordinate
    11.119,                   !- Vertex 38 Ycoordinate
    0,                        !- Vertex 38 Zcoordinate
    14.082,                   !- Vertex 39 Xcoordinate
    10.76,                    !- Vertex 39 Ycoordinate
    0,                        !- Vertex 39 Zcoordinate
    13.815,                   !- Vertex 40 Xcoordinate
    10.439,                   !- Vertex 40 Ycoordinate
    0,                        !- Vertex 40 Zcoordinate
    13.499,                   !- Vertex 41 Xcoordinate
    10.171,                   !- Vertex 41 Ycoordinate
    0,                        !- Vertex 41 Zcoordinate
    13.283,                   !- Vertex 42 Xcoordinate
    9.045,                    !- Vertex 42 Ycoordinate
    0,                        !- Vertex 42 Zcoordinate
    12.968,                   !- Vertex 43 Xcoordinate
    7.471,                    !- Vertex 43 Ycoordinate
    0,                        !- Vertex 43 Zcoordinate
    11.678,                   !- Vertex 44 Xcoordinate
    0.39,                     !- Vertex 44 Ycoordinate
    0,                        !- Vertex 44 Zcoordinate
    11.221,                   !- Vertex 45 Xcoordinate
    0.476,                    !- Vertex 45 Ycoordinate
    0,                        !- Vertex 45 Zcoordinate
    10.293,                   !- Vertex 46 Xcoordinate
    0.207,                    !- Vertex 46 Ycoordinate
    0,                        !- Vertex 46 Zcoordinate
    9.337,                    !- Vertex 47 Xcoordinate
    0.048,                    !- Vertex 47 Ycoordinate
    0,                        !- Vertex 47 Zcoordinate
    8.371,                    !- Vertex 48 Xcoordinate
    0,                        !- Vertex 48 Ycoordinate
    0,                        !- Vertex 48 Zcoordinate
    7.406,                    !- Vertex 49 Xcoordinate
    0.065,                    !- Vertex 49 Ycoordinate
    0,                        !- Vertex 49 Zcoordinate
    6.454,                    !- Vertex 50 Xcoordinate
    0.241,                    !- Vertex 50 Ycoordinate
    0,                        !- Vertex 50 Zcoordinate
    5.531,                    !- Vertex 51 Xcoordinate
    0.526,                    !- Vertex 51 Ycoordinate
    0,                        !- Vertex 51 Zcoordinate
    4.644,                    !- Vertex 52 Xcoordinate
    0.918,                    !- Vertex 52 Ycoordinate
    0,                        !- Vertex 52 Zcoordinate
    3.811,                    !- Vertex 53 Xcoordinate
    1.408,                    !- Vertex 53 Ycoordinate
    0,                        !- Vertex 53 Zcoordinate
    3.039,                    !- Vertex 54 Xcoordinate
    1.991,                    !- Vertex 54 Ycoordinate
    0,                        !- Vertex 54 Zcoordinate
    2.558,                    !- Vertex 55 Xcoordinate
    2.08,                     !- Vertex 55 Ycoordinate
    0,                        !- Vertex 55 Zcoordinate
    2.845,                    !- Vertex 56 Xcoordinate
    3.624,                    !- Vertex 56 Ycoordinate
    0,                        !- Vertex 56 Zcoordinate
    0.368,                    !- Vertex 57 Xcoordinate
    4.085,                    !- Vertex 57 Ycoordinate
    0,                        !- Vertex 57 Zcoordinate
    1.202,                    !- Vertex 58 Xcoordinate
    8.567,                    !- Vertex 58 Ycoordinate
    0,                        !- Vertex 58 Zcoordinate
    0.948,                    !- Vertex 59 Xcoordinate
    8.663,                    !- Vertex 59 Ycoordinate
    0,                        !- Vertex 59 Zcoordinate
    0.712,                    !- Vertex 60 Xcoordinate
    8.798,                    !- Vertex 60 Ycoordinate
    0,                        !- Vertex 60 Zcoordinate
    0.502,                    !- Vertex 61 Xcoordinate
    8.97,                     !- Vertex 61 Ycoordinate
    0,                        !- Vertex 61 Zcoordinate
    0.324,                    !- Vertex 62 Xcoordinate
    9.174,                    !- Vertex 62 Ycoordinate
    0,                        !- Vertex 62 Zcoordinate
    0.182,                    !- Vertex 63 Xcoordinate
    9.403,                    !- Vertex 63 Ycoordinate
    0,                        !- Vertex 63 Zcoordinate
    0.078,                    !- Vertex 64 Xcoordinate
    9.655,                    !- Vertex 64 Ycoordinate
    0,                        !- Vertex 64 Zcoordinate
    0.017,                    !- Vertex 65 Xcoordinate
    9.919,                    !- Vertex 65 Ycoordinate
    0,                        !- Vertex 65 Zcoordinate
    0,                        !- Vertex 66 Xcoordinate
    10.189,                   !- Vertex 66 Ycoordinate
    0,                        !- Vertex 66 Zcoordinate
    0.027,                    !- Vertex 67 Xcoordinate
    10.458,                   !- Vertex 67 Ycoordinate
    0,                        !- Vertex 67 Zcoordinate
    0.099,                    !- Vertex 68 Xcoordinate
    10.72,                    !- Vertex 68 Ycoordinate
    0,                        !- Vertex 68 Zcoordinate
    0.212,                    !- Vertex 69 Xcoordinate
    10.966,                   !- Vertex 69 Ycoordinate
    0,                        !- Vertex 69 Zcoordinate
    0.363,                    !- Vertex 70 Xcoordinate
    11.19,                    !- Vertex 70 Ycoordinate
    0,                        !- Vertex 70 Zcoordinate
    0.551,                    !- Vertex 71 Xcoordinate
    11.387,                   !- Vertex 71 Ycoordinate
    0,                        !- Vertex 71 Zcoordinate
    0.767,                    !- Vertex 72 Xcoordinate
    11.551,                   !- Vertex 72 Ycoordinate
    0,                        !- Vertex 72 Zcoordinate
    1.006,                    !- Vertex 73 Xcoordinate
    11.676,                   !- Vertex 73 Ycoordinate
    0;                        !- Vertex 73 Zcoordinate

BUILDINGSURFACE:DETAILED,
    F_1,                      !- Name
    Wall,                     !- Surface Type
    C_F,                      !- Construction Name
    Zone_0599100000013914,    !- Zone Name
    ,                         !- Space Name
    Outdoors,                 !- Outside Boundary Condition
    ,                         !- Outside Boundary Condition Object
    SunExposed,               !- Sun Exposure
    WindExposed,              !- Wind Exposure
    0.5,                      !- View Factor to Ground
    4,                        !- Number of Vertices
    13.815,                   !- Vertex 1 Xcoordinate
    10.439,                   !- Vertex 1 Ycoordinate
    8.487,                    !- Vertex 1 Zcoordinate
    13.815,                   !- Vertex 2 Xcoordinate
    10.439,                   !- Vertex 2 Ycoordinate
    0,                        !- Vertex 2 Zcoordinate
    14.082,                   !- Vertex 3 Xcoordinate
    10.76,                    !- Vertex 3 Ycoordinate
    0,                        !- Vertex 3 Zcoordinate
    14.082,                   !- Vertex 4 Xcoordinate
    10.76,                    !- Vertex 4 Ycoordinate
    8.487;                    !- Vertex 4 Zcoordinate

BUILDINGSURFACE:DETAILED,
    F_2,                      !- Name
    Wall,                     !- Surface Type
    C_F,                      !- Construction Name
    Zone_0599100000013914,    !- Zone Name
    ,                         !- Space Name
    Outdoors,                 !- Outside Boundary Condition
    ,                         !- Outside Boundary Condition Object
    SunExposed,               !- Sun Exposure
    WindExposed,              !- Wind Exposure
    0.5,                      !- View Factor to Ground
    4,                        !- Number of Vertices
    13.499,                   !- Vertex 1 Xcoordinate
    10.171,                   !- Vertex 1 Ycoordinate
    8.487,                    !- Vertex 1 Zcoordinate
    13.499,                   !- Vertex 2 Xcoordinate
    10.171,                   !- Vertex 2 Ycoordinate
    0,                        !- Vertex 2 Zcoordinate
    13.815,                   !- Vertex 3 Xcoordinate
    10.439,                   !- Vertex 3 Ycoordinate
    0,                        !- Vertex 3 Zcoordinate
    13.815,                   !- Vertex 4 Xcoordinate
    10.439,                   !- Vertex 4 Ycoordinate
    8.487;                    !- Vertex 4 Zcoordinate

BUILDINGSURFACE:DETAILED,
    F_3,                      !- Name
    Wall,                     !- Surface Type
    C_F,                      !- Construction Name
    Zone_0599100000013914,    !- Zone Name
    ,                         !- Space Name
    Outdoors,                 !- Outside Boundary Condition
    ,                         !- Outside Boundary Condition Object
    SunExposed,               !- Sun Exposure
    WindExposed,              !- Wind Exposure
    0.5,                      !- View Factor to Ground
    4,                        !- Number of Vertices
    14.082,                   !- Vertex 1 Xcoordinate
    10.76,                    !- Vertex 1 Ycoordinate
    8.487,                    !- Vertex 1 Zcoordinate
    14.082,                   !- Vertex 2 Xcoordinate
    10.76,                    !- Vertex 2 Ycoordinate
    0,                        !- Vertex 2 Zcoordinate
    14.29,                    !- Vertex 3 Xcoordinate
    11.119,                   !- Vertex 3 Ycoordinate
    0,                        !- Vertex 3 Zcoordinate
    14.29,                    !- Vertex 4 Xcoordinate
    11.119,                   !- Vertex 4 Ycoordinate
    8.487;                    !- Vertex 4 Zcoordinate

BUILDINGSURFACE:DETAILED,
    F_4,                      !- Name
    Wall,                     !- Surface Type
    C_F,                      !- Construction Name
    Zone_0599100000013914,    !- Zone Name
    ,                         !- Space Name
    Outdoors,                 !- Outside Boundary Condition
    ,                         !- Outside Boundary Condition Object
    SunExposed,               !- Sun Exposure
    WindExposed,              !- Wind Exposure
    0.5,                      !- View Factor to Ground
    4,                        !- Number of Vertices
    14.435,                   !- Vertex 1 Xcoordinate
    11.51,                    !- Vertex 1 Ycoordinate
    8.487,                    !- Vertex 1 Zcoordinate
    14.435,                   !- Vertex 2 Xcoordinate
    11.51,                    !- Vertex 2 Ycoordinate
    0,                        !- Vertex 2 Zcoordinate
    14.509,                   !- Vertex 3 Xcoordinate
    11.919,                   !- Vertex 3 Ycoordinate
    0,                        !- Vertex 3 Zcoordinate
    14.509,                   !- Vertex 4 Xcoordinate
    11.919,                   !- Vertex 4 Ycoordinate
    8.487;                    !- Vertex 4 Zcoordinate

BUILDINGSURFACE:DETAILED,
    F_5,                      !- Name
    Wall,                     !- Surface Type
    C_F,                      !- Construction Name
    Zone_0599100000013914,    !- Zone Name
    ,                         !- Space Name
    Outdoors,                 !- Outside Boundary Condition
    ,                         !- Outside Boundary Condition Object
    SunExposed,               !- Sun Exposure
    WindExposed,              !- Wind Exposure
    0.5,                      !- View Factor to Ground
    4,                        !- Number of Vertices
    14.29,                    !- Vertex 1 Xcoordinate
    11.119,                   !- Vertex 1 Ycoordinate
    8.487,                    !- Vertex 1 Zcoordinate
    14.29,                    !- Vertex 2 Xcoordinate
    11.119,                   !- Vertex 2 Ycoordinate
    0,                        !- Vertex 2 Zcoordinate
    14.435,                   !- Vertex 3 Xcoordinate
    11.51,                    !- Vertex 3 Ycoordinate
    0,                        !- Vertex 3 Zcoordinate
    14.435,                   !- Vertex 4 Xcoordinate
    11.51,                    !- Vertex 4 Ycoordinate
    8.487;                    !- Vertex 4 Zcoordinate

BUILDINGSURFACE:DETAILED,
    F_6,                      !- Name
    Wall,                     !- Surface Type
    C_F,                      !- Construction Name
    Zone_0599100000013914,    !- Zone Name
    ,                         !- Space Name
    Outdoors,                 !- Outside Boundary Condition
    ,                         !- Outside Boundary Condition Object
    SunExposed,               !- Sun Exposure
    WindExposed,              !- Wind Exposure
    0.5,                      !- View Factor to Ground
    4,                        !- Number of Vertices
    4.644,                    !- Vertex 1 Xcoordinate
    0.918,                    !- Vertex 1 Ycoordinate
    8.487,                    !- Vertex 1 Zcoordinate
    4.644,                    !- Vertex 2 Xcoordinate
    0.918,                    !- Vertex 2 Ycoordinate
    0,                        !- Vertex 2 Zcoordinate
    5.531,                    !- Vertex 3 Xcoordinate
    0.526,                    !- Vertex 3 Ycoordinate
    0,                        !- Vertex 3 Zcoordinate
    5.531,                    !- Vertex 4 Xcoordinate
    0.526,                    !- Vertex 4 Ycoordinate
    8.487;                    !- Vertex 4 Zcoordinate

BUILDINGSURFACE:DETAILED,
    F_7,                      !- Name
    Wall,                     !- Surface Type
    C_F,                      !- Construction Name
    Zone_0599100000013914,    !- Zone Name
    ,                         !- Space Name
    Outdoors,                 !- Outside Boundary Condition
    ,                         !- Outside Boundary Condition Object
    SunExposed,               !- Sun Exposure
    WindExposed,              !- Wind Exposure
    0.5,                      !- View Factor to Ground
    4,                        !- Number of Vertices
    13.283,                   !- Vertex 1 Xcoordinate
    9.045,                    !- Vertex 1 Ycoordinate
    8.487,                    !- Vertex 1 Zcoordinate
    13.283,                   !- Vertex 2 Xcoordinate
    9.045,                    !- Vertex 2 Ycoordinate
    0,                        !- Vertex 2 Zcoordinate
    13.499,                   !- Vertex 3 Xcoordinate
    10.171,                   !- Vertex 3 Ycoordinate
    0,                        !- Vertex 3 Zcoordinate
    13.499,                   !- Vertex 4 Xcoordinate
    10.171,                   !- Vertex 4 Ycoordinate
    8.487;                    !- Vertex 4 Zcoordinate

BUILDINGSURFACE:DETAILED,
    F_8,                      !- Name
    Wall,                     !- Surface Type
    C_F,                      !- Construction Name
    Zone_0599100000013914,    !- Zone Name
    ,                         !- Space Name
    Outdoors,                 !- Outside Boundary Condition
    ,                         !- Outside Boundary Condition Object
    SunExposed,               !- Sun Exposure
    WindExposed,              !- Wind Exposure
    0.5,                      !- View Factor to Ground
    4,                        !- Number of Vertices
    14.509,                   !- Vertex 1 Xcoordinate
    11.919,                   !- Vertex 1 Ycoordinate
    8.487,                    !- Vertex 1 Zcoordinate
    14.509,                   !- Vertex 2 Xcoordinate
    11.919,                   !- Vertex 2 Ycoordinate
    0,                        !- Vertex 2 Zcoordinate
    14.514,                   !- Vertex 3 Xcoordinate
    12.333,                   !- Vertex 3 Ycoordinate