!- Windows Line endings 

Version,
    24.2;                     !- Version Identifier

SimulationControl,
    No,                       !- Do Zone Sizing Calculation
    No,                       !- Do System Sizing Calculation
    No,                       !- Do Plant Sizing Calculation
    No,                       !- Run Simulation for Sizing Periods
    Yes,                      !- Run Simulation for Weather File Run Periods
    No,                       !- Do HVAC Sizing Simulation for Sizing Periods
    1;                        !- Maximum Number of HVAC Sizing Simulation Passes

BUILDING,
    Pand.0599100000365177,    !- Name
    0,                        !- North Axis
    City,                     !- Terrain
    0.04,                     !- Loads Convergence Tolerance Value
    0.4,                      !- Temperature Convergence Tolerance Value
    FullExterior,             !- Solar Distribution
    25,                       !- Maximum Number of Warmup Days
    1;                        !- Minimum Number of Warmup Days

Timestep,
    6;                        !- Number of Timesteps per Hour

Site:Location,
    Rotterdam.The.Hague.AP_ZH_NLD Design_Conditions,    !- Name
    51.96,                    !- Latitude
    4.45,                     !- Longitude
    1,                        !- Time Zone
    -4.5;                     !- Elevation

RunPeriod,
    Run Period 1,             !- Name
    1,                        !- Begin Month
    1,                        !- Begin Day of Month
    ,                         !- Begin Year
    12,                       !- End Month
    31,                       !- End Day of Month
    ,                         !- End Year
    ,                         !- Day of Week for Start Day
    Yes,                      !- Use Weather File Holidays and Special Days
    Yes,                      !- Use Weather File Daylight Saving Period
    No,                       !- Apply Weekend Holiday Rule
    Yes,                      !- Use Weather File Rain Indicators
    Yes,                      !- Use Weather File Snow Indicators
    No,                       !- Treat Weather as Actual
    Hour24;                   !- First Hour Interpolation Starting Values

RunPeriodControl:DaylightSavingTime,
    Last Sunday in March,     !- Start Date
    Last Sunday in October;    !- End Date

SITE:GROUNDTEMPERATURE:BUILDINGSURFACE,
    18,                       !- January Ground Temperature
    18,                       !- February Ground Temperature
    18,                       !- March Ground Temperature
    18,                       !- April Ground Temperature
    18,                       !- May Ground Temperature
    18,                       !- June Ground Temperature
    18,                       !- July Ground Temperature
    18,                       !- August Ground Temperature
    18,                       !- September Ground Temperature
    18,                       !- October Ground Temperature
    18,                       !- November Ground Temperature
    18;                       !- December Ground Temperature

SCHEDULETYPELIMITS,
    Temperature,              !- Name
    -100,                     !- Lower Limit Value
    100,                      !- Upper Limit Value
    CONTINUOUS,               !- Numeric Type
    Temperature;              !- Unit Type

SCHEDULETYPELIMITS,
    Fraction,                 !- Name
    0,                        !- Lower Limit Value
    1,                        !- Upper Limit Value
    CONTINUOUS,               !- Numeric Type
    Dimensionless;            !- Unit Type

SCHEDULETYPELIMITS,
    Control Type,             !- Name
    0,                        !- Lower Limit Value
    4,                        !- Upper Limit Value
    DISCRETE,                 !- Numeric Type
    Dimensionless;            !- Unit Type

SCHEDULE:COMPACT,
    HeatingSetpoint_Zone_0599100000365177,    !- Name
    Temperature,              !- Schedule Type Limits Name
    Through: 12/31,           !- Field 1
    For: AllDays,             !- Field 2
    Until: 24:00,             !- Field 3
    21.0;                     !- Field 4

SCHEDULE:COMPACT,
    CoolingSetpoint_Zone_0599100000365177,    !- Name
    Temperature,              !- Schedule Type Limits Name
    Through: 12/31,           !- Field 1
    For: AllDays,             !- Field 2
    Until: 24:00,             !- Field 3
    24.0;                     !- Field 4

SCHEDULE:COMPACT,
    DualSetpointControlType,    !- Name
    Control Type,             !- Schedule Type Limits Name
    Through: 12/31,           !- Field 1
    For: AllDays,             !- Field 2
    Until: 24:00,             !- Field 3
    4;                        !- Field 4

SCHEDULE:COMPACT,
    AlwaysOn,                 !- Name
    Fraction,                 !- Schedule Type Limits Name
    Through: 12/31,           !- Field 1
    For: AllDays,             !- Field 2
    Until: 24:00,             !- Field 3
    1.0;                      !- Field 4

MATERIAL,
    G.D.1992-2005,            !- Name
    MediumSmooth,             !- Roughness
    0.15,                     !- Thickness
    0.06,                     !- Conductivity
    540,                      !- Density
    1210,                     !- Specific Heat
    0.9,                      !- Thermal Absorptance
    0.7,                      !- Solar Absorptance
    0.7;                      !- Visible Absorptance

MATERIAL,
    F.D.1992-2005,            !- Name
    Rough,                    !- Roughness
    0.3,                      !- Thickness
    0.12,                     !- Conductivity
    1920,                     !- Density
    840,                      !- Specific Heat
    0.9,                      !- Thermal Absorptance
    0.7,                      !- Solar Absorptance
    0.7;                      !- Visible Absorptance

MATERIAL,
    R.D.1992-2005,            !- Name
    MediumRough,              !- Roughness
    0.2,                      !- Thickness
    0.08,                     !- Conductivity
    1500,                     !- Density
    1000,                     !- Specific Heat
    0.9,                      !- Thermal Absorptance
    0.7,                      !- Solar Absorptance
    0.7;                      !- Visible Absorptance

WINDOWMATERIAL:SIMPLEGLAZINGSYSTEM,
    W.D.1992-2005,            !- Name
    2.9,                      !- UFactor
    0.6,                      !- Solar Heat Gain Coefficient
    0.6;                      !- Visible Transmittance

CONSTRUCTION,
    C_G,                      !- Name
    G.D.1992-2005;            !- Outside Layer

CONSTRUCTION,
    C_F,                      !- Name
    F.D.1992-2005;            !- Outside Layer

CONSTRUCTION,
    C_R,                      !- Name
    R.D.1992-2005;            !- Outside Layer

GlobalGeometryRules,
    UpperLeftCorner,          !- Starting Vertex Position
    Counterclockwise,         !- Vertex Entry Direction
    World,                    !- Coordinate System
    World,                    !- Daylighting Reference Point Coordinate System
    Relative;                 !- Rectangular Surface Coordinate System

ZONE,
    Zone_0599100000365177,    !- Name
    0,                        !- Direction of Relative North
    0,                        !- X Origin
    0,                        !- Y Origin
    0,                        !- Z Origin
    1,                        !- Type
    1,                        !- Multiplier
    Autocalculate,            !- Ceiling Height
    Autocalculate,            !- Volume
    autocalculate,            !- Floor Area
    ,                         !- Zone Inside Convection Algorithm
    ,                         !- Zone Outside Convection Algorithm
    Yes;                      !- Part of Total Floor Area

BUILDINGSURFACE:DETAILED,
    G_0,                      !- Name
    Floor,                    !- Surface Type
    C_G,                      !- Construction Name
    Zone_0599100000365177,    !- Zone Name
    ,                         !- Space Name
    Ground,                   !- Outside Boundary Condition
    ,                         !- Outside Boundary Condition Object
    SunExposed,               !- Sun Exposure
    WindExposed,              !- Wind Exposure
    0.5,                      !- View Factor to Ground
    36,                       !- Number of Vertices
    1.293,                    !- Vertex 1 Xcoordinate
    6.306,                    !- Vertex 1 Ycoordinate
    0,                        !- Vertex 1 Zcoordinate
    1.194,                    !- Vertex 2 Xcoordinate
    6.259,                    !- Vertex 2 Ycoordinate
    0,                        !- Vertex 2 Zcoordinate
    0.109,                    !- Vertex 3 Xcoordinate
    8.698,                    !- Vertex 3 Ycoordinate
    0,                        !- Vertex 3 Zcoordinate
    0.268,                    !- Vertex 4 Xcoordinate
    8.768,                    !- Vertex 4 Ycoordinate
    0,                        !- Vertex 4 Zcoordinate
    0.165,                    !- Vertex 5 Xcoordinate
    9.018,                    !- Vertex 5 Ycoordinate
    0,                        !- Vertex 5 Zcoordinate
    5.043,                    !- Vertex 6 Xcoordinate
    11.183,                   !- Vertex 6 Ycoordinate
    0,                        !- Vertex 6 Zcoordinate
    6.147,                    !- Vertex 7 Xcoordinate
    8.652,                    !- Vertex 7 Ycoordinate
    0,                        !- Vertex 7 Zcoordinate
    10.94,                    !- Vertex 8 Xcoordinate
    10.807,                   !- Vertex 8 Ycoordinate
    0,                        !- Vertex 8 Zcoordinate
    9.918,                    !- Vertex 9 Xcoordinate
    13.042,                   !- Vertex 9 Ycoordinate
    0,                        !- Vertex 9 Zcoordinate
    12.146,                   !- Vertex 10 Xcoordinate
    14.063,                   !- Vertex 10 Ycoordinate
    0,                        !- Vertex 10 Zcoordinate
    10.035,                   !- Vertex 11 Xcoordinate
    18.846,                   !- Vertex 11 Ycoordinate
    0,                        !- Vertex 11 Zcoordinate
    7.57,                     !- Vertex 12 Xcoordinate
    17.744,                   !- Vertex 12 Ycoordinate
    0,                        !- Vertex 12 Zcoordinate
    5.314,                    !- Vertex 13 Xcoordinate
    22.791,                   !- Vertex 13 Ycoordinate
    0,                        !- Vertex 13 Zcoordinate
    10.37,                    !- Vertex 14 Xcoordinate
    25.034,                   !- Vertex 14 Ycoordinate
    0,                        !- Vertex 14 Zcoordinate
    11.486,                   !- Vertex 15 Xcoordinate
    22.52,                    !- Vertex 15 Ycoordinate
    0,                        !- Vertex 15 Zcoordinate
    16.53,                    !- Vertex 16 Xcoordinate
    24.739,                   !- Vertex 16 Ycoordinate
    0,                        !- Vertex 16 Zcoordinate
    17.623,                   !- Vertex 17 Xcoordinate
    25.247,                   !- Vertex 17 Ycoordinate
    0,                        !- Vertex 17 Zcoordinate
    18.632,                   !- Vertex 18 Xcoordinate
    22.78,                    !- Vertex 18 Ycoordinate
    0,                        !- Vertex 18 Zcoordinate
    18.746,                   !- Vertex 19 Xcoordinate
    22.83,                    !- Vertex 19 Ycoordinate
    0,                        !- Vertex 19 Zcoordinate
    20.09,                    !- Vertex 20 Xcoordinate
    19.806,                   !- Vertex 20 Ycoordinate
    0,                        !- Vertex 20 Zcoordinate
    19.907,                   !- Vertex 21 Xcoordinate
    19.667,                   !- Vertex 21 Ycoordinate
    0,                        !- Vertex 21 Zcoordinate
    21.2,                     !- Vertex 22 Xcoordinate
    16.507,                   !- Vertex 22 Ycoordinate
    0,                        !- Vertex 22 Zcoordinate
    21.481,                   !- Vertex 23 Xcoordinate
    16.679,                   !- Vertex 23 Ycoordinate
    0,                        !- Vertex 23 Zcoordinate
    22.047,                   !- Vertex 24 Xcoordinate
    15.405,                   !- Vertex 24 Ycoordinate
    0,                        !- Vertex 24 Zcoordinate
    19.797,                   !- Vertex 25 Xcoordinate
    14.404,                   !- Vertex 25 Ycoordinate
    0,                        !- Vertex 25 Zcoordinate
    17.794,                   !- Vertex 26 Xcoordinate
    13.923,                   !- Vertex 26 Ycoordinate
    0,                        !- Vertex 26 Zcoordinate
    18.316,                   !- Vertex 27 Xcoordinate
    13.745,                   !- Vertex 27 Ycoordinate
    0,                        !- Vertex 27 Zcoordinate
    15.868,                   !- Vertex 28 Xcoordinate
    12.656,                   !- Vertex 28 Ycoordinate
    0,                        !- Vertex 28 Zcoordinate
    16.888,                   !- Vertex 29 Xcoordinate
    10.366,                   !- Vertex 29 Ycoordinate
    0,                        !- Vertex 29 Zcoordinate
    14.591,                   !- Vertex 30 Xcoordinate
    9.37,                     !- Vertex 30 Ycoordinate
    0,                        !- Vertex 30 Zcoordinate
    16.849,                   !- Vertex 31 Xcoordinate
    4.341,                    !- Vertex 31 Ycoordinate
    0,                        !- Vertex 31 Zcoordinate
    6.978,                    !- Vertex 32 Xcoordinate
    0,                        !- Vertex 32 Ycoordinate
    0,                        !- Vertex 32 Zcoordinate
    4.751,                    !- Vertex 33 Xcoordinate
    5.052,                    !- Vertex 33 Ycoordinate
    0,                        !- Vertex 33 Zcoordinate
    2.225,                    !- Vertex 34 Xcoordinate
    3.94,                     !- Vertex 34 Ycoordinate
    0,                        !- Vertex 34 Zcoordinate
    1.477,                    !- Vertex 35 Xcoordinate
    5.623,                    !- Vertex 35 Ycoordinate
    0,                        !- Vertex 35 Zcoordinate
    1.547,                    !- Vertex 36 Xcoordinate
    5.696,                    !- Vertex 36 Ycoordinate
    0;                        !- Vertex 36 Zcoordinate

BUILDINGSURFACE:DETAILED,
    F_1,                      !- Name
    Wall,                     !- Surface Type
    C_F,                      !- Construction Name
    Zone_0599100000365177,    !- Zone Name
    ,                         !- Space Name
    Outdoors,                 !- Outside Boundary Condition
    ,                         !- Outside Boundary Condition Object
    SunExposed,               !- Sun Exposure
    WindExposed,              !- Wind Exposure
    0.5,                      !- View Factor to Ground
    4,                        !- Number of Vertices
    14.591,                   !- Vertex 1 Xcoordinate
    9.37,                     !- Vertex 1 Ycoordinate
    8.419,                    !- Vertex 1 Zcoordinate
    14.591,                   !- Vertex 2 Xcoordinate
    9.37,                     !- Vertex 2 Ycoordinate
    0,                        !- Vertex 2 Zcoordinate
    16.888,                   !- Vertex 3 Xcoordinate
    10.366,                   !- Vertex 3 Ycoordinate
    0,                        !- Vertex 3 Zcoordinate
    16.888,                   !- Vertex 4 Xcoordinate
    10.366,                   !- Vertex 4 Ycoordinate
    8.419;                    !- Vertex 4 Zcoordinate

BUILDINGSURFACE:DETAILED,
    F_2,                      !- Name
    Wall,                     !- Surface Type
    C_F,                      !- Construction Name
    Zone_0599100000365177,    !- Zone Name
    ,                         !- Space Name
    Outdoors,                 !- Outside Boundary Condition
    ,                         !- Outside Boundary Condition Object
    SunExposed,               !- Sun Exposure
    WindExposed,              !- Wind Exposure
    0.5,                      !- View Factor to Ground
    4,                        !- Number of Vertices
    16.849,                   !- Vertex 1 Xcoordinate
    4.341,                    !- Vertex 1 Ycoordinate
    8.419,                    !- Vertex 1 Zcoordinate
    16.849,                   !- Vertex 2 Xcoordinate
    4.341,                    !- Vertex 2 Ycoordinate
    0,                        !- Vertex 2 Zcoordinate
    14.591,                   !- Vertex 3 Xcoordinate
    9.37,                     !- Vertex 3 Ycoordinate
    0,                        !- Vertex 3 Zcoordinate
    14.591,                   !- Vertex 4 Xcoordinate
    9.37,                     !- Vertex 4 Ycoordinate
    8.419;                    !- Vertex 4 Zcoordinate

BUILDINGSURFACE:DETAILED,
    F_3,                      !- Name
    Wall,                     !- Surface Type
    C_F,                      !- Construction Name
    Zone_0599100000365177,    !- Zone Name
    ,                         !- Space Name
    Outdoors,                 !- Outside Boundary Condition
    ,                         !- Outside Boundary Condition Object
    SunExposed,               !- Sun Exposure
    WindExposed,              !- Wind Exposure
    0.5,                      !- View Factor to Ground
    4,                        !- Number of Vertices
    10.035,                   !- Vertex 1 Xcoordinate
    18.846,                   !- Vertex 1 Ycoordinate
    8.419,                    !- Vertex 1 Zcoordinate
    10.035,                   !- Vertex 2 Xcoordinate
    18.846,                   !- Vertex 2 Ycoordinate
    0,                        !- Vertex 2 Zcoordinate
    12.146,                   !- Vertex 3 Xcoordinate
    14.063,                   !- Vertex 3 Ycoordinate
    0,                        !- Vertex 3 Zcoordinate
    12.146,                   !- Vertex 4 Xcoordinate
    14.063,                   !- Vertex 4 Ycoordinate
    8.419;                    !- Vertex 4 Zcoordinate

BUILDINGSURFACE:DETAILED,
    F_4,                      !- Name
    Wall,                     !- Surface Type
    C_F,                      !- Construction Name
    Zone_0599100000365177,    !- Zone Name
    ,                         !- Space Name
    Outdoors,                 !- Outside Boundary Condition
    ,                         !- Outside Boundary Condition Object
    SunExposed,               !- Sun Exposure
    WindExposed,              !- Wind Exposure
    0.5,                      !- View Factor to Ground
    4,                        !- Number of Vertices
    5.314,                    !- Vertex 1 Xcoordinate
    22.791,                   !- Vertex 1 Ycoordinate
    8.419,                    !- Vertex 1 Zcoordinate
    5.314,                    !- Vertex 2 Xcoordinate
    22.791,                   !- Vertex 2 Ycoordinate
    0,                        !- Vertex 2 Zcoordinate
    7.57,                     !- Vertex 3 Xcoordinate
    17.744,                   !- Vertex 3 Ycoordinate
    0,                        !- Vertex 3 Zcoordinate
    7.57,                     !- Vertex 4 Xcoordinate
    17.744,                   !- Vertex 4 Ycoordinate
    8.419;                    !- Vertex 4 Zcoordinate

BUILDINGSURFACE:DETAILED,
    F_5,                      !- Name
    Wall,                     !- Surface Type
    C_F,                      !- Construction Name
    Zone_0599100000365177,    !- Zone Name
    ,                         !- Space Name
    Outdoors,                 !- Outside Boundary Condition
    ,                         !- Outside Boundary Condition Object
    SunExposed,               !- Sun Exposure
    WindExposed,              !- Wind Exposure
    0.5,                      !- View Factor to Ground
    4,                        !- Number of Vertices
    7.57,                     !- Vertex 1 Xcoordinate
    17.744,                   !- Vertex 1 Ycoordinate
    8.419,                    !- Vertex 1 Zcoordinate
    7.57,                     !- Vertex 2 Xcoordinate
    17.744,                   !- Vertex 2 Ycoordinate
    0,                        !- Vertex 2 Zcoordinate
    10.035,                   !- Vertex 3 Xcoordinate
    18.846,                   !- Vertex 3 Ycoordinate
    0,                        !- Vertex 3 Zcoordinate
    10.035,                   !- Vertex 4 Xcoordinate
    18.846,                   !- Vertex 4 Ycoordinate
    8.419;                    !- Vertex 4 Zcoordinate

BUILDINGSURFACE:DETAILED,
    F_6,                      !- Name
    Wall,                     !- Surface Type
    C_F,                      !- Construction Name
    Zone_0599100000365177,    !- Zone Name
    ,                         !- Space Name
    Outdoors,                 !- Outside Boundary Condition
    ,                         !- Outside Boundary Condition Object
    SunExposed,               !- Sun Exposure
    WindExposed,              !- Wind Exposure
    0.5,                      !- View Factor to Ground
    4,                        !- Number of Vertices
    11.486,                   !- Vertex 1 Xcoordinate
    22.52,                    !- Vertex 1 Ycoordinate
    8.419,                    !- Vertex 1 Zcoordinate
    11.486,                   !- Vertex 2 Xcoordinate
    22.52,                    !- Vertex 2 Ycoordinate
    0,                        !- Vertex 2 Zcoordinate
    10.37,                    !- Vertex 3 Xcoordinate
    25.034,                   !- Vertex 3 Ycoordinate
    0,                        !- Vertex 3 Zcoordinate
    10.37,                    !- Vertex 4 Xcoordinate
    25.034,                   !- Vertex 4 Ycoordinate
    8.419;                    !- Vertex 4 Zcoordinate

BUILDINGSURFACE:DETAILED,
    F_7,                      !- Name
    Wall,                     !- Surface Type
    C_F,                      !- Construction Name
    Zone_0599100000365177,    !- Zone Name
    ,                         !- Space Name
    Outdoors,                 !- Outside Boundary Condition
    ,                         !- Outside Boundary Condition Object
    SunExposed,               !- Sun Exposure
    WindExposed,              !- Wind Exposure
    0.5,                      !- View Factor to Ground
    4,                        !- Number of Vertices
    10.37,                    !- Vertex 1 Xcoordinate
    25.034,                   !- Vertex 1 Ycoordinate
    8.419,                    !- Vertex 1 Zcoordinate
    10.37,                    !- Vertex 2 Xcoordinate
    25.034,                   !- Vertex 2 Ycoordinate
    0,                        !- Vertex 2 Zcoordinate
    5.314,                    !- Vertex 3 Xcoordinate
    22.791,                   !- Vertex 3 Ycoordinate
    0,                        !- Vertex 3 Zcoordinate
    5.314,                    !- Vertex 4 Xcoordinate
    22.791,                   !- Vertex 4 Ycoordinate
    8.419;                    !- Vertex 4 Zcoordinate

BUILDINGSURFACE:DETAILED,
    F_8,                      !- Name
    Wall,                     !- Surface Type
    C_F,                      !- Construction Name
    Zone_0599100000365177,    !- Zone Name
    ,                         !- Space Name
    Outdoors,                 !- Outside Boundary Condition
    ,                         !- Outside Boundary Condition Object
    SunExposed,               !- Sun Exposure
    WindExposed,              !- Wind Exposure
    0.5,                      !- View Factor to Ground
    4,                        !- Number of Vertices
    9.918,                    !- Vertex 1 Xcoordinate
    13.042,                   !- Vertex 1 Ycoordinate
    8.419,                    !- Vertex 1 Zcoordinate
    9.918,                    !- Vertex 2 Xcoordinate
    13.042,                   !- Vertex 2 Ycoordinate
    0,                        !- Vertex 2 Zcoordinate
    10.94,                    !- Vertex 3 Xcoordinate
    10.807,                   !- Vertex 3 Ycoordinate
    0,                        !- Vertex 3 Zcoordinate
    10.94,                    !- Vertex 4 Xcoordinate
    10.807,                   !- Vertex 4 Ycoordinate
    8.419;                    !- Vertex 4 Zcoordinate

BUILDINGSURFACE:DETAILED,
    F_9,                      !- Name
    Wall,                     !- Surface Type
    C_F,                      !- Construction Name
    Zone_0599100000365177,    !- Zone Name
    ,                         !- Space Name
    Outdoors,                 !- Outside Boundary Condition
    ,                         !- Outside Boundary Condition Object
    SunExposed,               !- Sun Exposure
    WindExposed,              !- Wind Exposure
    0.5,                      !- View Factor to Ground
    4,                        !- Number of Vertices
    12.146,                   !- Vertex 1 Xcoordinate
    14.063,                   !- Vertex 1 Ycoordinate
    8.419,                    !- Vertex 1 Zcoordinate
    12.146,                   !- Vertex 2 Xcoordinate
    14.063,                   !- Vertex 2 Ycoordinate
    0,                        !- Vertex 2 Zcoordinate
    9.918,                    !- Vertex 3 Xcoordinate
    13.042,                   !- Vertex 3 Ycoordinate
    0,                        !- Vertex 3 Zcoordinate
    9.918,                    !- Vertex 4 Xcoordinate
    13.042,                   !- Vertex 4 Ycoordinate
    8.419;                    !- Vertex 4 Zcoordinate

BUILDINGSURFACE:DETAILED,
    F_10,                     !- Name
    Wall,                     !- Surface Type
    C_F,                      !- Construction Name
    Zone_0599100000365177,    !- Zone Name
    ,                         !- Space Name
    Outdoors,                 !- Outside Boundary Condition
    ,                         !- Outside Boundary Condition Object
    SunExposed,               !- Sun Exposure
    WindExposed,              !- Wind Exposure
    0.5,                      !- View Factor to Ground
    4,                        !- Number of Vertices
    10.94,                    !- Vertex 1 Xcoordinate
    10.807,                   !- Vertex 1 Ycoordinate
    8.419,                    !- Vertex 1 Zcoordinate
    10.94,                    !- Vertex 2 Xcoordinate
    10.807,                   !- Vertex 2 Ycoordinate
    0,                        !- Vertex 2 Zcoordinate
    6.147,                    !- Vertex 3 Xcoordinate
    8.652,                    !- Vertex 3 Ycoordinate
    0,                        !- Vertex 3 Zcoordinate
    6.147,                    !- Vertex 4 Xcoordinate
    8.652,                    !- Vertex 4 Ycoordinate
    8.419;                    !- Vertex 4 Zcoordinate

BUILDINGSURFACE:DETAILED,
    F_11,                     !- Name
    Wall,                     !- Surface Type
    C_F,                      !- Construction Name
    Zone_0599100000365177,    !- Zone Name
    ,                         !- Space Name
    Outdoors,                 !- Outside Boundary Condition
    ,                         !- Outside Boundary Condition Object
    SunExposed,               !- Sun Exposure
    WindExposed,              !- Wind Exposure
    0.5,                      !- View Factor to Ground
    4,                        !- Number of Vertices
    4.751,                    !- Vertex 1 Xcoordinate
    5.052,                    !- Vertex 1 Ycoordinate
    8.419,                    !- Vertex 1 Zcoordinate
    4.751,                    !- Vertex 2 Xcoordinate
    5.052,                    !- Vertex 2 Ycoordinate
    0,                        !- Vertex 2 Zcoordinate
    6.978,                    !- Vertex 3 Xcoordinate
    0,                        !- Vertex 3 Ycoordinate
    0,                        !- Vertex 3 Zcoordinate
    6.978,                    !- Vertex 4 Xcoordinate
    0,                        !- Vertex 4 Ycoordinate
    8.419;                    !- Vertex 4 Zcoordinate

BUILDINGSURFACE:DETAILED,
    F_12,                     !- Name
    Wall,                     !- Surface Type
    C_F,                      !- Construction Name
    Zone_0599100000365177,    !- Zone Name
    ,                         !- Space Name
    Outdoors,                 !- Outside Boundary Condition
    ,                         !- Outside Boundary Condition Object
    SunExposed,               !- Sun Exposure
    WindExposed,              !- Wind Exposure
    0.5,                      !- View Factor to Ground
    4,                        !- Number of Vertices
    5.043,                    !- Vertex 1 Xcoordinate
    11.183,                   !- Vertex 1 Ycoordinate
    8.419,                    !- Vertex 1 Zcoordinate
    5.043,                    !- Vertex 2 Xcoordinate
    11.183,                   !- Vertex 2 Ycoordinate
    0,                        !- Vertex 2 Zcoordinate
    0.165,                    !- Vertex 3 Xcoordinate
    9.018,                    !- Vertex 3 Ycoordinate
    0,                        !- Vertex 3 Zcoordinate
    0.165,                    !- Vertex 4 Xcoordinate
    9.018,                    !- Vertex 4 Ycoordinate
    8.419;                    !- Vertex 4 Zcoordinate

BUILDINGSURFACE:DETAILED,
    F_13,                     !- Name
    Wall,                     !- Surface Type
    C_F,                      !- Construction Name
    Zone_0599100000365177,    !- Zone Name
    ,                         !- Space Name
    Outdoors,                 !- Outside Boundary Condition
    ,                         !- Outside Boundary Condition Object
    SunExposed,               !- Sun Exposure
    WindExposed,              !- Wind Exposure
    0.5,                      !- View Factor to Ground
    4,                        !- Number of Vertices
    6.978,                    !- Vertex 1 Xcoordinate
    0,                        !- Vertex 1 Ycoordinate
    8.419,                    !- Vertex 1 Zcoordinate
    6.978,                    !- Vertex 2 Xcoordinate
    0,                        !- Vertex 2 Ycoordinate
    0,                        !- Vertex 2 Zcoordinate
    16.849,                   !- Vertex 3 Xcoordinate
    4.341,                    !- Vertex 3 Ycoordinate