!- Windows Line endings 

Version,
    24.2;                     !- Version Identifier

SimulationControl,
    No,                       !- Do Zone Sizing Calculation
    No,                       !- Do System Sizing Calculation
    No,                       !- Do Plant Sizing Calculation
    No,                       !- Run Simulation for Sizing Periods
    Yes,                      !- Run Simulation for Weather File Run Periods
    No,                       !- Do HVAC Sizing Simulation for Sizing Periods
    1;                        !- Maximum Number of HVAC Sizing Simulation Passes

BUILDING,
    Pand.0599100000029730,    !- Name
    0,                        !- North Axis
    City,                     !- Terrain
    0.04,                     !- Loads Convergence Tolerance Value
    0.4,                      !- Temperature Convergence Tolerance Value
    FullExterior,             !- Solar Distribution
    25,                       !- Maximum Number of Warmup Days
    1;                        !- Minimum Number of Warmup Days

Timestep,
    6;                        !- Number of Timesteps per Hour

Site:Location,
    Rotterdam.The.Hague.AP_ZH_NLD Design_Conditions,    !- Name
    51.96,                    !- Latitude
    4.45,                     !- Longitude
    1,                        !- Time Zone
    -4.5;                     !- Elevation

RunPeriod,
    Run Period 1,             !- Name
    1,                        !- Begin Month
    1,                        !- Begin Day of Month
    ,                         !- Begin Year
    12,                       !- End Month
    31,                       !- End Day of Month
    ,                         !- End Year
    ,                         !- Day of Week for Start Day
    Yes,                      !- Use Weather File Holidays and Special Days
    Yes,                      !- Use Weather File Daylight Saving Period
    No,                       !- Apply Weekend Holiday Rule
    Yes,                      !- Use Weather File Rain Indicators
    Yes,                      !- Use Weather File Snow Indicators
    No,                       !- Treat Weather as Actual
    Hour24;                   !- First Hour Interpolation Starting Values

RunPeriodControl:DaylightSavingTime,
    Last Sunday in March,     !- Start Date
    Last Sunday in October;    !- End Date

SITE:GROUNDTEMPERATURE:BUILDINGSURFACE,
    18,                       !- January Ground Temperature
    18,                       !- February Ground Temperature
    18,                       !- March Ground Temperature
    18,                       !- April Ground Temperature
    18,                       !- May Ground Temperature
    18,                       !- June Ground Temperature
    18,                       !- July Ground Temperature
    18,                       !- August Ground Temperature
    18,                       !- September Ground Temperature
    18,                       !- October Ground Temperature
    18,                       !- November Ground Temperature
    18;                       !- December Ground Temperature

SCHEDULETYPELIMITS,
    Temperature,              !- Name
    -100,                     !- Lower Limit Value
    100,                      !- Upper Limit Value
    CONTINUOUS,               !- Numeric Type
    Temperature;              !- Unit Type

SCHEDULETYPELIMITS,
    Fraction,                 !- Name
    0,                        !- Lower Limit Value
    1,                        !- Upper Limit Value
    CONTINUOUS,               !- Numeric Type
    Dimensionless;            !- Unit Type

SCHEDULETYPELIMITS,
    Control Type,             !- Name
    0,                        !- Lower Limit Value
    4,                        !- Upper Limit Value
    DISCRETE,                 !- Numeric Type
    Dimensionless;            !- Unit Type

SCHEDULE:COMPACT,
    HeatingSetpoint_Zone_0599100000029730,    !- Name
    Temperature,              !- Schedule Type Limits Name
    Through: 12/31,           !- Field 1
    For: AllDays,             !- Field 2
    Until: 24:00,             !- Field 3
    21.0;                     !- Field 4

SCHEDULE:COMPACT,
    CoolingSetpoint_Zone_0599100000029730,    !- Name
    Temperature,              !- Schedule Type Limits Name
    Through: 12/31,           !- Field 1
    For: AllDays,             !- Field 2
    Until: 24:00,             !- Field 3
    24.0;                     !- Field 4

SCHEDULE:COMPACT,
    DualSetpointControlType,    !- Name
    Control Type,             !- Schedule Type Limits Name
    Through: 12/31,           !- Field 1
    For: AllDays,             !- Field 2
    Until: 24:00,             !- Field 3
    4;                        !- Field 4

SCHEDULE:COMPACT,
    AlwaysOn,                 !- Name
    Fraction,                 !- Schedule Type Limits Name
    Through: 12/31,           !- Field 1
    For: AllDays,             !- Field 2
    Until: 24:00,             !- Field 3
    1.0;                      !- Field 4

MATERIAL,
    G.D.1975-1991,            !- Name
    MediumSmooth,             !- Roughness
    0.15,                     !- Thickness
    2.884615e-01,             !- Conductivity
    540,                      !- Density
    1210,                     !- Specific Heat
    0.9,                      !- Thermal Absorptance
    0.7,                      !- Solar Absorptance
    0.7;                      !- Visible Absorptance

MATERIAL,
    F.D.1975-1991,            !- Name
    Rough,                    !- Roughness
    0.3,                      !- Thickness
    2.307692e-01,             !- Conductivity
    1920,                     !- Density
    840,                      !- Specific Heat
    0.9,                      !- Thermal Absorptance
    0.7,                      !- Solar Absorptance
    0.7;                      !- Visible Absorptance

MATERIAL,
    R.D.1975-1991,            !- Name
    MediumRough,              !- Roughness
    0.2,                      !- Thickness
    1.538462e-01,             !- Conductivity
    1500,                     !- Density
    1000,                     !- Specific Heat
    0.9,                      !- Thermal Absorptance
    0.7,                      !- Solar Absorptance
    0.7;                      !- Visible Absorptance

WINDOWMATERIAL:SIMPLEGLAZINGSYSTEM,
    W.D.1975-1991,            !- Name
    2.9,                      !- UFactor
    0.6,                      !- Solar Heat Gain Coefficient
    0.6;                      !- Visible Transmittance

CONSTRUCTION,
    C_G,                      !- Name
    G.D.1975-1991;            !- Outside Layer

CONSTRUCTION,
    C_F,                      !- Name
    F.D.1975-1991;            !- Outside Layer

CONSTRUCTION,
    C_R,                      !- Name
    R.D.1975-1991;            !- Outside Layer

GlobalGeometryRules,
    UpperLeftCorner,          !- Starting Vertex Position
    Counterclockwise,         !- Vertex Entry Direction
    World,                    !- Coordinate System
    World,                    !- Daylighting Reference Point Coordinate System
    Relative;                 !- Rectangular Surface Coordinate System

ZONE,
    Zone_0599100000029730,    !- Name
    0,                        !- Direction of Relative North
    0,                        !- X Origin
    0,                        !- Y Origin
    0,                        !- Z Origin
    1,                        !- Type
    1,                        !- Multiplier
    Autocalculate,            !- Ceiling Height
    Autocalculate,            !- Volume
    autocalculate,            !- Floor Area
    ,                         !- Zone Inside Convection Algorithm
    ,                         !- Zone Outside Convection Algorithm
    Yes;                      !- Part of Total Floor Area

BUILDINGSURFACE:DETAILED,
    G_0,                      !- Name
    Floor,                    !- Surface Type
    C_G,                      !- Construction Name
    Zone_0599100000029730,    !- Zone Name
    ,                         !- Space Name
    Ground,                   !- Outside Boundary Condition
    ,                         !- Outside Boundary Condition Object
    SunExposed,               !- Sun Exposure
    WindExposed,              !- Wind Exposure
    0.5,                      !- View Factor to Ground
    37,                       !- Number of Vertices
    7.422,                    !- Vertex 1 Xcoordinate
    24.996,                   !- Vertex 1 Ycoordinate
    4.19,                     !- Vertex 1 Zcoordinate
    9.8,                      !- Vertex 2 Xcoordinate
    23.75,                    !- Vertex 2 Ycoordinate
    4.19,                     !- Vertex 2 Zcoordinate
    10.959,                   !- Vertex 3 Xcoordinate
    25.959,                   !- Vertex 3 Ycoordinate
    4.19,                     !- Vertex 3 Zcoordinate
    16.42,                    !- Vertex 4 Xcoordinate
    23.08,                    !- Vertex 4 Ycoordinate
    4.19,                     !- Vertex 4 Zcoordinate
    15.25,                    !- Vertex 5 Xcoordinate
    20.88,                    !- Vertex 5 Ycoordinate
    4.19,                     !- Vertex 5 Zcoordinate
    31.998,                   !- Vertex 6 Xcoordinate
    12.05,                    !- Vertex 6 Ycoordinate
    4.19,                     !- Vertex 6 Zcoordinate
    31.904,                   !- Vertex 7 Xcoordinate
    11.846,                   !- Vertex 7 Ycoordinate
    4.19,                     !- Vertex 7 Zcoordinate
    32.233,                   !- Vertex 8 Xcoordinate
    11.667,                   !- Vertex 8 Ycoordinate
    4.19,                     !- Vertex 8 Zcoordinate
    27.909,                   !- Vertex 9 Xcoordinate
    3.479,                    !- Vertex 9 Ycoordinate
    4.19,                     !- Vertex 9 Zcoordinate
    19.779,                   !- Vertex 10 Xcoordinate
    7.77,                     !- Vertex 10 Ycoordinate
    4.19,                     !- Vertex 10 Zcoordinate
    13.766,                   !- Vertex 11 Xcoordinate
    10.912,                   !- Vertex 11 Ycoordinate
    4.19,                     !- Vertex 11 Zcoordinate
    10.758,                   !- Vertex 12 Xcoordinate
    5.216,                    !- Vertex 12 Ycoordinate
    4.19,                     !- Vertex 12 Zcoordinate
    11.17,                    !- Vertex 13 Xcoordinate
    5,                        !- Vertex 13 Ycoordinate
    4.19,                     !- Vertex 13 Zcoordinate
    12.329,                   !- Vertex 14 Xcoordinate
    4.229,                    !- Vertex 14 Ycoordinate
    4.19,                     !- Vertex 14 Zcoordinate
    12.68,                    !- Vertex 15 Xcoordinate
    3.77,                     !- Vertex 15 Ycoordinate
    4.19,                     !- Vertex 15 Zcoordinate
    12.969,                   !- Vertex 16 Xcoordinate
    2.979,                    !- Vertex 16 Ycoordinate
    4.19,                     !- Vertex 16 Zcoordinate
    12.829,                   !- Vertex 17 Xcoordinate
    1.58,                     !- Vertex 17 Ycoordinate
    4.19,                     !- Vertex 17 Zcoordinate
    11.98,                    !- Vertex 18 Xcoordinate
    0.47,                     !- Vertex 18 Ycoordinate
    4.19,                     !- Vertex 18 Zcoordinate
    10.659,                   !- Vertex 19 Xcoordinate
    0,                        !- Vertex 19 Ycoordinate
    4.19,                     !- Vertex 19 Zcoordinate
    9.269,                    !- Vertex 20 Xcoordinate
    0.27,                     !- Vertex 20 Ycoordinate
    4.19,                     !- Vertex 20 Zcoordinate
    6.529,                    !- Vertex 21 Xcoordinate
    1.709,                    !- Vertex 21 Ycoordinate
    4.19,                     !- Vertex 21 Zcoordinate
    6.289,                    !- Vertex 22 Xcoordinate
    1.25,                     !- Vertex 22 Ycoordinate
    4.19,                     !- Vertex 22 Zcoordinate
    4.509,                    !- Vertex 23 Xcoordinate
    2.19,                     !- Vertex 23 Ycoordinate
    4.19,                     !- Vertex 23 Zcoordinate
    4.75,                     !- Vertex 24 Xcoordinate
    2.649,                    !- Vertex 24 Ycoordinate
    4.19,                     !- Vertex 24 Zcoordinate
    0,                        !- Vertex 25 Xcoordinate
    5.169,                    !- Vertex 25 Ycoordinate
    4.19,                     !- Vertex 25 Zcoordinate
    3.99,                     !- Vertex 26 Xcoordinate
    12.759,                   !- Vertex 26 Ycoordinate
    4.19,                     !- Vertex 26 Zcoordinate
    1.36,                     !- Vertex 27 Xcoordinate
    14.169,                   !- Vertex 27 Ycoordinate
    4.19,                     !- Vertex 27 Zcoordinate
    1.891,                    !- Vertex 28 Xcoordinate
    15.196,                   !- Vertex 28 Ycoordinate
    4.19,                     !- Vertex 28 Zcoordinate
    2.03,                     !- Vertex 29 Xcoordinate
    15.17,                    !- Vertex 29 Ycoordinate
    4.19,                     !- Vertex 29 Zcoordinate
    2.198,                    !- Vertex 30 Xcoordinate
    15.79,                    !- Vertex 30 Ycoordinate
    4.19,                     !- Vertex 30 Zcoordinate
    2.829,                    !- Vertex 31 Xcoordinate
    17.009,                   !- Vertex 31 Ycoordinate
    4.19,                     !- Vertex 31 Zcoordinate
    5.5,                      !- Vertex 32 Xcoordinate
    15.6,                     !- Vertex 32 Ycoordinate
    4.19,                     !- Vertex 32 Zcoordinate
    7.07,                     !- Vertex 33 Xcoordinate
    18.569,                   !- Vertex 33 Ycoordinate
    4.19,                     !- Vertex 33 Zcoordinate
    4.409,                    !- Vertex 34 Xcoordinate
    19.959,                   !- Vertex 34 Ycoordinate
    4.19,                     !- Vertex 34 Zcoordinate
    7.13,                     !- Vertex 35 Xcoordinate
    25.149,                   !- Vertex 35 Ycoordinate
    4.19,                     !- Vertex 35 Zcoordinate
    7.311,                    !- Vertex 36 Xcoordinate
    25.054,                   !- Vertex 36 Ycoordinate
    4.19,                     !- Vertex 36 Zcoordinate
    7.361,                    !- Vertex 37 Xcoordinate
    24.893,                   !- Vertex 37 Ycoordinate
    4.19;                     !- Vertex 37 Zcoordinate

BUILDINGSURFACE:DETAILED,
    F_1,                      !- Name
    Wall,                     !- Surface Type
    C_F,                      !- Construction Name
    Zone_0599100000029730,    !- Zone Name
    ,                         !- Space Name
    Outdoors,                 !- Outside Boundary Condition
    ,                         !- Outside Boundary Condition Object
    SunExposed,               !- Sun Exposure
    WindExposed,              !- Wind Exposure
    0.5,                      !- View Factor to Ground
    4,                        !- Number of Vertices
    1.891,                    !- Vertex 1 Xcoordinate
    15.196,                   !- Vertex 1 Ycoordinate
    9.71,                     !- Vertex 1 Zcoordinate
    1.891,                    !- Vertex 2 Xcoordinate
    15.196,                   !- Vertex 2 Ycoordinate
    4.19,                     !- Vertex 2 Zcoordinate
    1.36,                     !- Vertex 3 Xcoordinate
    14.169,                   !- Vertex 3 Ycoordinate
    4.19,                     !- Vertex 3 Zcoordinate
    1.36,                     !- Vertex 4 Xcoordinate
    14.169,                   !- Vertex 4 Ycoordinate
    9.71;                     !- Vertex 4 Zcoordinate

BUILDINGSURFACE:DETAILED,
    F_2,                      !- Name
    Wall,                     !- Surface Type
    C_F,                      !- Construction Name
    Zone_0599100000029730,    !- Zone Name
    ,                         !- Space Name
    Outdoors,                 !- Outside Boundary Condition
    ,                         !- Outside Boundary Condition Object
    SunExposed,               !- Sun Exposure
    WindExposed,              !- Wind Exposure
    0.5,                      !- View Factor to Ground
    4,                        !- Number of Vertices
    2.03,                     !- Vertex 1 Xcoordinate
    15.17,                    !- Vertex 1 Ycoordinate
    9.71,                     !- Vertex 1 Zcoordinate
    2.03,                     !- Vertex 2 Xcoordinate
    15.17,                    !- Vertex 2 Ycoordinate
    4.19,                     !- Vertex 2 Zcoordinate
    1.891,                    !- Vertex 3 Xcoordinate
    15.196,                   !- Vertex 3 Ycoordinate
    4.19,                     !- Vertex 3 Zcoordinate
    1.891,                    !- Vertex 4 Xcoordinate
    15.196,                   !- Vertex 4 Ycoordinate
    9.71;                     !- Vertex 4 Zcoordinate

BUILDINGSURFACE:DETAILED,
    F_3,                      !- Name
    Wall,                     !- Surface Type
    C_F,                      !- Construction Name
    Zone_0599100000029730,    !- Zone Name
    ,                         !- Space Name
    Outdoors,                 !- Outside Boundary Condition
    ,                         !- Outside Boundary Condition Object
    SunExposed,               !- Sun Exposure
    WindExposed,              !- Wind Exposure
    0.5,                      !- View Factor to Ground
    4,                        !- Number of Vertices
    4.75,                     !- Vertex 1 Xcoordinate
    2.649,                    !- Vertex 1 Ycoordinate
    9.71,                     !- Vertex 1 Zcoordinate
    4.75,                     !- Vertex 2 Xcoordinate
    2.649,                    !- Vertex 2 Ycoordinate
    4.19,                     !- Vertex 2 Zcoordinate
    4.509,                    !- Vertex 3 Xcoordinate
    2.19,                     !- Vertex 3 Ycoordinate
    4.19,                     !- Vertex 3 Zcoordinate
    4.509,                    !- Vertex 4 Xcoordinate
    2.19,                     !- Vertex 4 Ycoordinate
    9.71;                     !- Vertex 4 Zcoordinate

BUILDINGSURFACE:DETAILED,
    F_4,                      !- Name
    Wall,                     !- Surface Type
    C_F,                      !- Construction Name
    Zone_0599100000029730,    !- Zone Name
    ,                         !- Space Name
    Outdoors,                 !- Outside Boundary Condition
    ,                         !- Outside Boundary Condition Object
    SunExposed,               !- Sun Exposure
    WindExposed,              !- Wind Exposure
    0.5,                      !- View Factor to Ground
    4,                        !- Number of Vertices
    3.99,                     !- Vertex 1 Xcoordinate
    12.759,                   !- Vertex 1 Ycoordinate
    9.71,                     !- Vertex 1 Zcoordinate
    3.99,                     !- Vertex 2 Xcoordinate
    12.759,                   !- Vertex 2 Ycoordinate
    4.19,                     !- Vertex 2 Zcoordinate
    0,                        !- Vertex 3 Xcoordinate
    5.169,                    !- Vertex 3 Ycoordinate
    4.19,                     !- Vertex 3 Zcoordinate
    0,                        !- Vertex 4 Xcoordinate
    5.169,                    !- Vertex 4 Ycoordinate
    9.71;                     !- Vertex 4 Zcoordinate

BUILDINGSURFACE:DETAILED,
    F_5,                      !- Name
    Wall,                     !- Surface Type
    C_F,                      !- Construction Name
    Zone_0599100000029730,    !- Zone Name
    ,                         !- Space Name
    Outdoors,                 !- Outside Boundary Condition
    ,                         !- Outside Boundary Condition Object
    SunExposed,               !- Sun Exposure
    WindExposed,              !- Wind Exposure
    0.5,                      !- View Factor to Ground
    4,                        !- Number of Vertices
    1.36,                     !- Vertex 1 Xcoordinate
    14.169,                   !- Vertex 1 Ycoordinate
    9.71,                     !- Vertex 1 Zcoordinate
    1.36,                     !- Vertex 2 Xcoordinate
    14.169,                   !- Vertex 2 Ycoordinate
    4.19,                     !- Vertex 2 Zcoordinate
    3.99,                     !- Vertex 3 Xcoordinate
    12.759,                   !- Vertex 3 Ycoordinate
    4.19,                     !- Vertex 3 Zcoordinate
    3.99,                     !- Vertex 4 Xcoordinate
    12.759,                   !- Vertex 4 Ycoordinate
    9.71;                     !- Vertex 4 Zcoordinate

BUILDINGSURFACE:DETAILED,
    F_6,                      !- Name
    Wall,                     !- Surface Type
    C_F,                      !- Construction Name
    Zone_0599100000029730,    !- Zone Name
    ,                         !- Space Name
    Outdoors,                 !- Outside Boundary Condition
    ,                         !- Outside Boundary Condition Object
    SunExposed,               !- Sun Exposure
    WindExposed,              !- Wind Exposure
    0.5,                      !- View Factor to Ground
    4,                        !- Number of Vertices
    0,                        !- Vertex 1 Xcoordinate
    5.169,                    !- Vertex 1 Ycoordinate
    9.71,                     !- Vertex 1 Zcoordinate
    0,                        !- Vertex 2 Xcoordinate
    5.169,                    !- Vertex 2 Ycoordinate
    4.19,                     !- Vertex 2 Zcoordinate
    4.75,                     !- Vertex 3 Xcoordinate
    2.649,                    !- Vertex 3 Ycoordinate
    4.19,                     !- Vertex 3 Zcoordinate
    4.75,                     !- Vertex 4 Xcoordinate
    2.649,                    !- Vertex 4 Ycoordinate
    9.71;                     !- Vertex 4 Zcoordinate

BUILDINGSURFACE:DETAILED,
    F_7,                      !- Name
    Wall,                     !- Surface Type
    C_F,                      !- Construction Name
    Zone_0599100000029730,    !- Zone Name
    ,                         !- Space Name
    Outdoors,                 !- Outside Boundary Condition
    ,                         !- Outside Boundary Condition Object
    SunExposed,               !- Sun Exposure
    WindExposed,              !- Wind Exposure
    0.5,                      !- View Factor to Ground
    4,                        !- Number of Vertices
    4.509,                    !- Vertex 1 Xcoordinate
    2.19,                     !- Vertex 1 Ycoordinate
    9.71,                     !- Vertex 1 Zcoordinate
    4.509,                    !- Vertex 2 Xcoordinate
    2.19,                     !- Vertex 2 Ycoordinate
    4.19,                     !- Vertex 2 Zcoordinate
    6.289,                    !- Vertex 3 Xcoordinate
    1.25,                     !- Vertex 3 Ycoordinate
    4.19,                     !- Vertex 3 Zcoordinate
    6.289,                    !- Vertex 4 Xcoordinate
    1.25,                     !- Vertex 4 Ycoordinate
    9.71;                     !- Vertex 4 Zcoordinate

BUILDINGSURFACE:DETAILED,
    F_8,                      !- Name
    Wall,                     !- Surface Type
    C_F,                      !- Construction Name
    Zone_0599100000029730,    !- Zone Name
    ,                         !- Space Name
    Outdoors,                 !- Outside Boundary Condition
    ,                         !- Outside Boundary Condition Object
    SunExposed,               !- Sun Exposure
    WindExposed,              !- Wind Exposure
    0.5,                      !- View Factor to Ground
    4,                        !- Number of Vertices
    10.659,                   !- Vertex 1 Xcoordinate
    0,                        !- Vertex 1 Ycoordinate
    9.71,                     !- Vertex 1 Zcoordinate
    10.659,                   !- Vertex 2 Xcoordinate
    0,                        !- Vertex 2 Ycoordinate
    4.19,                     !- Vertex 2 Zcoordinate
    11.98,                    !- Vertex 3 Xcoordinate
    0.47,                     !- Vertex 3 Ycoordinate
    4.19,                     !- Vertex 3 Zcoordinate
    11.98,                    !- Vertex 4 Xcoordinate
    0.47,                     !- Vertex 4 Ycoordinate
    9.71;                     !- Vertex 4 Zcoordinate

BUILDINGSURFACE:DETAILED,
    F_9,                      !- Name
    Wall,                     !- Surface Type
    C_F,                      !- Construction Name
    Zone_0599100000029730,    !- Zone Name
    ,                         !- Space Name
    Outdoors,                 !- Outside Boundary Condition
    ,                         !- Outside Boundary Condition Object
    SunExposed,               !- Sun Exposure
    WindExposed,              !- Wind Exposure
    0.5,                      !- View Factor to Ground
    4,                        !- Number of Vertices
    11.98,                    !- Vertex 1 Xcoordinate
    0.47,                     !- Vertex 1 Ycoordinate
    9.71,                     !- Vertex 1 Zcoordinate
    11.98,                    !- Vertex 2 Xcoordinate
    0.47,                     !- Vertex 2 Ycoordinate
    4.19,                     !- Vertex 2 Zcoordinate
    12.829,                   !- Vertex 3 Xcoordinate
    1.58,                     !- Vertex 3 Ycoordinate
    4.19,                     !- Vertex 3 Zcoordinate
    12.829,                   !- Vertex 4 Xcoordinate
    1.58,                     !- Vertex 4 Ycoordinate
    9.71;                     !- Vertex 4 Zcoordinate

BUILDINGSURFACE:DETAILED,
    F_10,                     !- Name
    Wall,                     !- Surface Type
    C_F,                      !- Construction Name
    Zone_0599100000029730,    !- Zone Name
    ,                         !- Space Name
    Outdoors,                 !- Outside Boundary Condition
    ,                         !- Outside Boundary Condition Object
    SunExposed,               !- Sun Exposure
    WindExposed,              !- Wind Exposure
    0.5,                      !- View Factor to Ground
    4,                        !- Number of Vertices
    6.529,                    !- Vertex 1 Xcoordinate
    1.709,                    !- Vertex 1 Ycoordinate
    9.71,                     !- Vertex 1 Zcoordinate
    6.529,                    !- Vertex 2 Xcoordinate
    1.709,                    !- Vertex 2 Ycoordinate
    4.19,                     !- Vertex 2 Zcoordinate
    9.269,                    !- Vertex 3 Xcoordinate
    0.27,                     !- Vertex 3 Ycoordinate
    4.19,                     !- Vertex 3 Zcoordinate
    9.269,                    !- Vertex 4 Xcoordinate
    0.27,                     !- Vertex 4 Ycoordinate
    9.71;                     !- Vertex 4 Zcoordinate

BUILDINGSURFACE:DETAILED,
    F_11,                     !- Name
    Wall,                     !- Surface Type
    C_F,                      !- Construction Name
    Zone_0599100000029730,    !- Zone Name
    ,                         !- Space Name
    Outdoors,                 !- Outside Boundary Condition
    ,                         !- Outside Boundary Condition Object
    SunExposed,               !- Sun Exposure
    WindExposed,              !- Wind Exposure
    0.5,                      !- View Factor to Ground
    4,                        !- Number of Vertices
    6.289,                    !- Vertex 1 Xcoordinate
    1.25,                     !- Vertex 1 Ycoordinate
    9.71,                     !- Vertex 1 Zcoordinate
    6.289,                    !- Vertex 2 Xcoordinate
    1.25,                     !- Vertex 2 Ycoordinate
    4.19,                     !- Vertex 2 Zcoordinate
    6.529,                    !- Vertex 3 Xcoordinate
    1.709,                    !- Vertex 3 Ycoordinate
    4.19,                     !- Vertex 3 Zcoordinate
    6.529,                    !- Vertex 4 Xcoordinate
    1.709,                    !- Vertex 4 Ycoordinate
    9.71;                     !- Vertex 4 Zcoordinate

BUILDINGSURFACE:DETAILED,
    F_12,                     !- Name
    Wall,                     !- Surface Type
    C_F,                      !- Construction Name
    Zone_0599100000029730,    !- Zone Name
    ,                         !- Space Name
    Outdoors,                 !- Outside Boundary Condition
    ,                         !- Outside Boundary Condition Object
    SunExposed,               !- Sun Exposure
    WindExposed,              !- Wind Exposure
    0.5,                      !- View Factor to Ground
    4,                        !- Number of Vertices
    12.829,                   !- Vertex 1 Xcoordinate
    1.58,                     !- Vertex 1 Ycoordinate
    9.71,                     !- Vertex 1 Zcoordinate
    12.829,                   !- Vertex 2 Xcoordinate
    1.58,                     !- Vertex 2 Ycoordinate
    4.19,                     !- Vertex 2 Zcoordinate
    12.969,                   !- Vertex 3 Xcoordinate
    2.979,                    !- Vertex 3 Ycoordinate
    4.19,                     !- Vertex 3 Zcoordinate
    12.969,                   !- Vertex 4 Xcoordinate
    2.979,                    !- Vertex 4 Ycoordinate
    9.71;                     !- Vertex 4 Zcoordinate

BUILDINGSURFACE:DETAILED,
    F_13,                     !- Name
    Wall,                     !- Surface Type
    C_F,                      !- Construction Name
    Zone_0599100000029730,    !- Zone Name
    ,                         !- Space Name
    Outdoors,                 !- Outside Boundary Condition
    ,                         !- Outside Boundary Condition Object
    SunExposed,               !- Sun Exposure
    WindExposed,              !- Wind Exposure
    0.5,                      !- View Factor to Ground
    4,                        !- Number of Vertices
    9.269,                    !- Vertex 1 Xcoordinate
    0.27,                     !- Vertex 1 Ycoordinate
    9.71,                     !- Vertex 1 Zcoordinate
    9.269,                    !- Vertex 2 Xcoordinate
    0.27,                     !- Vertex 2 Ycoordinate