!- Windows Line endings 

Version,
    24.2;                     !- Version Identifier

SimulationControl,
    No,                       !- Do Zone Sizing Calculation
    No,                       !- Do System Sizing Calculation
    No,                       !- Do Plant Sizing Calculation
    No,                       !- Run Simulation for Sizing Periods
    Yes,                      !- Run Simulation for Weather File Run Periods
    No,                       !- Do HVAC Sizing Simulation for Sizing Periods
    1;                        !- Maximum Number of HVAC Sizing Simulation Passes

BUILDING,
    Pand.0599100000262202,    !- Name
    0,                        !- North Axis
    City,                     !- Terrain
    0.04,                     !- Loads Convergence Tolerance Value
    0.4,                      !- Temperature Convergence Tolerance Value
    FullExterior,             !- Solar Distribution
    25,                       !- Maximum Number of Warmup Days
    1;                        !- Minimum Number of Warmup Days

Timestep,
    6;                        !- Number of Timesteps per Hour

Site:Location,
    Rotterdam.The.Hague.AP_ZH_NLD Design_Conditions,    !- Name
    51.96,                    !- Latitude
    4.45,                     !- Longitude
    1,                        !- Time Zone
    -4.5;                     !- Elevation

RunPeriod,
    Run Period 1,             !- Name
    1,                        !- Begin Month
    1,                        !- Begin Day of Month
    ,                         !- Begin Year
    12,                       !- End Month
    31,                       !- End Day of Month
    ,                         !- End Year
    ,                         !- Day of Week for Start Day
    Yes,                      !- Use Weather File Holidays and Special Days
    Yes,                      !- Use Weather File Daylight Saving Period
    No,                       !- Apply Weekend Holiday Rule
    Yes,                      !- Use Weather File Rain Indicators
    Yes,                      !- Use Weather File Snow Indicators
    No,                       !- Treat Weather as Actual
    Hour24;                   !- First Hour Interpolation Starting Values

RunPeriodControl:DaylightSavingTime,
    Last Sunday in March,     !- Start Date
    Last Sunday in October;    !- End Date

SITE:GROUNDTEMPERATURE:BUILDINGSURFACE,
    18,                       !- January Ground Temperature
    18,                       !- February Ground Temperature
    18,                       !- March Ground Temperature
    18,                       !- April Ground Temperature
    18,                       !- May Ground Temperature
    18,                       !- June Ground Temperature
    18,                       !- July Ground Temperature
    18,                       !- August Ground Temperature
    18,                       !- September Ground Temperature
    18,                       !- October Ground Temperature
    18,                       !- November Ground Temperature
    18;                       !- December Ground Temperature

SCHEDULETYPELIMITS,
    Temperature,              !- Name
    -100,                     !- Lower Limit Value
    100,                      !- Upper Limit Value
    CONTINUOUS,               !- Numeric Type
    Temperature;              !- Unit Type

SCHEDULETYPELIMITS,
    Fraction,                 !- Name
    0,                        !- Lower Limit Value
    1,                        !- Upper Limit Value
    CONTINUOUS,               !- Numeric Type
    Dimensionless;            !- Unit Type

SCHEDULETYPELIMITS,
    Control Type,             !- Name
    0,                        !- Lower Limit Value
    4,                        !- Upper Limit Value
    DISCRETE,                 !- Numeric Type
    Dimensionless;            !- Unit Type

SCHEDULE:COMPACT,
    HeatingSetpoint_Zone_0599100000262202,    !- Name
    Temperature,              !- Schedule Type Limits Name
    Through: 12/31,           !- Field 1
    For: AllDays,             !- Field 2
    Until: 24:00,             !- Field 3
    21.0;                     !- Field 4

SCHEDULE:COMPACT,
    CoolingSetpoint_Zone_0599100000262202,    !- Name
    Temperature,              !- Schedule Type Limits Name
    Through: 12/31,           !- Field 1
    For: AllDays,             !- Field 2
    Until: 24:00,             !- Field 3
    24.0;                     !- Field 4

SCHEDULE:COMPACT,
    DualSetpointControlType,    !- Name
    Control Type,             !- Schedule Type Limits Name
    Through: 12/31,           !- Field 1
    For: AllDays,             !- Field 2
    Until: 24:00,             !- Field 3
    4;                        !- Field 4

SCHEDULE:COMPACT,
    AlwaysOn,                 !- Name
    Fraction,                 !- Schedule Type Limits Name
    Through: 12/31,           !- Field 1
    For: AllDays,             !- Field 2
    Until: 24:00,             !- Field 3
    1.0;                      !- Field 4

MATERIAL,
    G.D.1975-1991,            !- Name
    MediumSmooth,             !- Roughness
    0.15,                     !- Thickness
    2.884615e-01,             !- Conductivity
    540,                      !- Density
    1210,                     !- Specific Heat
    0.9,                      !- Thermal Absorptance
    0.7,                      !- Solar Absorptance
    0.7;                      !- Visible Absorptance

MATERIAL,
    F.D.1975-1991,            !- Name
    Rough,                    !- Roughness
    0.3,                      !- Thickness
    2.307692e-01,             !- Conductivity
    1920,                     !- Density
    840,                      !- Specific Heat
    0.9,                      !- Thermal Absorptance
    0.7,                      !- Solar Absorptance
    0.7;                      !- Visible Absorptance

MATERIAL,
    R.D.1975-1991,            !- Name
    MediumRough,              !- Roughness
    0.2,                      !- Thickness
    1.538462e-01,             !- Conductivity
    1500,                     !- Density
    1000,                     !- Specific Heat
    0.9,                      !- Thermal Absorptance
    0.7,                      !- Solar Absorptance
    0.7;                      !- Visible Absorptance

WINDOWMATERIAL:SIMPLEGLAZINGSYSTEM,
    W.D.1975-1991,            !- Name
    2.9,                      !- UFactor
    0.6,                      !- Solar Heat Gain Coefficient
    0.6;                      !- Visible Transmittance

CONSTRUCTION,
    C_G,                      !- Name
    G.D.1975-1991;            !- Outside Layer

CONSTRUCTION,
    C_F,                      !- Name
    F.D.1975-1991;            !- Outside Layer

CONSTRUCTION,
    C_R,                      !- Name
    R.D.1975-1991;            !- Outside Layer

GlobalGeometryRules,
    UpperLeftCorner,          !- Starting Vertex Position
    Counterclockwise,         !- Vertex Entry Direction
    World,                    !- Coordinate System
    World,                    !- Daylighting Reference Point Coordinate System
    Relative;                 !- Rectangular Surface Coordinate System

ZONE,
    Zone_0599100000262202,    !- Name
    0,                        !- Direction of Relative North
    0,                        !- X Origin
    0,                        !- Y Origin
    0,                        !- Z Origin
    1,                        !- Type
    1,                        !- Multiplier
    Autocalculate,            !- Ceiling Height
    Autocalculate,            !- Volume
    autocalculate,            !- Floor Area
    ,                         !- Zone Inside Convection Algorithm
    ,                         !- Zone Outside Convection Algorithm
    Yes;                      !- Part of Total Floor Area

BUILDINGSURFACE:DETAILED,
    G_0,                      !- Name
    Floor,                    !- Surface Type
    C_G,                      !- Construction Name
    Zone_0599100000262202,    !- Zone Name
    ,                         !- Space Name
    Ground,                   !- Outside Boundary Condition
    ,                         !- Outside Boundary Condition Object
    SunExposed,               !- Sun Exposure
    WindExposed,              !- Wind Exposure
    0.5,                      !- View Factor to Ground
    35,                       !- Number of Vertices
    14.109,                   !- Vertex 1 Xcoordinate
    13.44,                    !- Vertex 1 Ycoordinate
    0,                        !- Vertex 1 Zcoordinate
    15.229,                   !- Vertex 2 Xcoordinate
    12.49,                    !- Vertex 2 Ycoordinate
    0,                        !- Vertex 2 Zcoordinate
    15.419,                   !- Vertex 3 Xcoordinate
    10.329,                   !- Vertex 3 Ycoordinate
    0,                        !- Vertex 3 Zcoordinate
    14.15,                    !- Vertex 4 Xcoordinate
    8.81,                     !- Vertex 4 Ycoordinate
    0,                        !- Vertex 4 Zcoordinate
    15.979,                   !- Vertex 5 Xcoordinate
    7.279,                    !- Vertex 5 Ycoordinate
    0,                        !- Vertex 5 Zcoordinate
    17.22,                    !- Vertex 6 Xcoordinate
    8.761,                    !- Vertex 6 Ycoordinate
    0,                        !- Vertex 6 Zcoordinate
    20.561,                   !- Vertex 7 Xcoordinate
    9.125,                    !- Vertex 7 Ycoordinate
    0,                        !- Vertex 7 Zcoordinate
    22.643,                   !- Vertex 8 Xcoordinate
    7.326,                    !- Vertex 8 Ycoordinate
    0,                        !- Vertex 8 Zcoordinate
    20.729,                   !- Vertex 9 Xcoordinate
    5.19,                     !- Vertex 9 Ycoordinate
    0,                        !- Vertex 9 Zcoordinate
    16.38,                    !- Vertex 10 Xcoordinate
    0,                        !- Vertex 10 Ycoordinate
    0,                        !- Vertex 10 Zcoordinate
    10.62,                    !- Vertex 11 Xcoordinate
    4.86,                     !- Vertex 11 Ycoordinate
    0,                        !- Vertex 11 Zcoordinate
    10.43,                    !- Vertex 12 Xcoordinate
    6.94,                     !- Vertex 12 Ycoordinate
    0,                        !- Vertex 12 Zcoordinate
    9.366,                    !- Vertex 13 Xcoordinate
    7.817,                    !- Vertex 13 Ycoordinate
    0,                        !- Vertex 13 Zcoordinate
    9.373,                    !- Vertex 14 Xcoordinate
    7.961,                    !- Vertex 14 Ycoordinate
    0,                        !- Vertex 14 Zcoordinate
    9.227,                    !- Vertex 15 Xcoordinate
    7.932,                    !- Vertex 15 Ycoordinate
    0,                        !- Vertex 15 Zcoordinate
    8.94,                     !- Vertex 16 Xcoordinate
    8.17,                     !- Vertex 16 Ycoordinate
    0,                        !- Vertex 16 Zcoordinate
    6.979,                    !- Vertex 17 Xcoordinate
    8.009,                    !- Vertex 17 Ycoordinate
    0,                        !- Vertex 17 Zcoordinate
    5.599,                    !- Vertex 18 Xcoordinate
    6.36,                     !- Vertex 18 Ycoordinate
    0,                        !- Vertex 18 Zcoordinate
    3.96,                     !- Vertex 19 Xcoordinate
    7.75,                     !- Vertex 19 Ycoordinate
    0,                        !- Vertex 19 Zcoordinate
    1.87,                     !- Vertex 20 Xcoordinate
    7.56,                     !- Vertex 20 Ycoordinate
    0,                        !- Vertex 20 Zcoordinate
    0.21,                     !- Vertex 21 Xcoordinate
    8.959,                    !- Vertex 21 Ycoordinate
    0,                        !- Vertex 21 Zcoordinate
    0,                        !- Vertex 22 Xcoordinate
    11.13,                    !- Vertex 22 Ycoordinate
    0,                        !- Vertex 22 Zcoordinate
    1.4,                      !- Vertex 23 Xcoordinate
    12.81,                    !- Vertex 23 Ycoordinate
    0,                        !- Vertex 23 Zcoordinate
    3.449,                    !- Vertex 24 Xcoordinate
    13,                       !- Vertex 24 Ycoordinate
    0,                        !- Vertex 24 Zcoordinate
    4.699,                    !- Vertex 25 Xcoordinate
    14.48,                    !- Vertex 25 Ycoordinate
    0,                        !- Vertex 25 Zcoordinate
    4.519,                    !- Vertex 26 Xcoordinate
    16.539,                   !- Vertex 26 Ycoordinate
    0,                        !- Vertex 26 Zcoordinate
    5.919,                    !- Vertex 27 Xcoordinate
    18.209,                   !- Vertex 27 Ycoordinate
    0,                        !- Vertex 27 Zcoordinate
    8.09,                     !- Vertex 28 Xcoordinate
    18.409,                   !- Vertex 28 Ycoordinate
    0,                        !- Vertex 28 Zcoordinate
    9.62,                     !- Vertex 29 Xcoordinate
    17.149,                   !- Vertex 29 Ycoordinate
    0,                        !- Vertex 29 Zcoordinate
    10.919,                   !- Vertex 30 Xcoordinate
    18.67,                    !- Vertex 30 Ycoordinate
    0,                        !- Vertex 30 Zcoordinate
    13.109,                   !- Vertex 31 Xcoordinate
    18.87,                    !- Vertex 31 Ycoordinate
    0,                        !- Vertex 31 Zcoordinate
    14.81,                    !- Vertex 32 Xcoordinate
    17.449,                   !- Vertex 32 Ycoordinate
    0,                        !- Vertex 32 Zcoordinate
    15,                       !- Vertex 33 Xcoordinate
    15.279,                   !- Vertex 33 Ycoordinate
    0,                        !- Vertex 33 Zcoordinate
    14.44,                    !- Vertex 34 Xcoordinate
    14.63,                    !- Vertex 34 Ycoordinate
    0,                        !- Vertex 34 Zcoordinate
    14.84,                    !- Vertex 35 Xcoordinate
    14.289,                   !- Vertex 35 Ycoordinate
    0;                        !- Vertex 35 Zcoordinate

BUILDINGSURFACE:DETAILED,
    F_1,                      !- Name
    Wall,                     !- Surface Type
    C_F,                      !- Construction Name
    Zone_0599100000262202,    !- Zone Name
    ,                         !- Space Name
    Outdoors,                 !- Outside Boundary Condition
    ,                         !- Outside Boundary Condition Object
    SunExposed,               !- Sun Exposure
    WindExposed,              !- Wind Exposure
    0.5,                      !- View Factor to Ground
    4,                        !- Number of Vertices
    15.229,                   !- Vertex 1 Xcoordinate
    12.49,                    !- Vertex 1 Ycoordinate
    6.294,                    !- Vertex 1 Zcoordinate
    15.229,                   !- Vertex 2 Xcoordinate
    12.49,                    !- Vertex 2 Ycoordinate
    0,                        !- Vertex 2 Zcoordinate
    14.109,                   !- Vertex 3 Xcoordinate
    13.44,                    !- Vertex 3 Ycoordinate
    0,                        !- Vertex 3 Zcoordinate
    14.109,                   !- Vertex 4 Xcoordinate
    13.44,                    !- Vertex 4 Ycoordinate
    6.294;                    !- Vertex 4 Zcoordinate

BUILDINGSURFACE:DETAILED,
    F_2,                      !- Name
    Wall,                     !- Surface Type
    C_F,                      !- Construction Name
    Zone_0599100000262202,    !- Zone Name
    ,                         !- Space Name
    Outdoors,                 !- Outside Boundary Condition
    ,                         !- Outside Boundary Condition Object
    SunExposed,               !- Sun Exposure
    WindExposed,              !- Wind Exposure
    0.5,                      !- View Factor to Ground
    4,                        !- Number of Vertices
    14.81,                    !- Vertex 1 Xcoordinate
    17.449,                   !- Vertex 1 Ycoordinate
    6.294,                    !- Vertex 1 Zcoordinate
    14.81,                    !- Vertex 2 Xcoordinate
    17.449,                   !- Vertex 2 Ycoordinate
    0,                        !- Vertex 2 Zcoordinate
    13.109,                   !- Vertex 3 Xcoordinate
    18.87,                    !- Vertex 3 Ycoordinate
    0,                        !- Vertex 3 Zcoordinate
    13.109,                   !- Vertex 4 Xcoordinate
    18.87,                    !- Vertex 4 Ycoordinate
    6.294;                    !- Vertex 4 Zcoordinate

BUILDINGSURFACE:DETAILED,
    F_3,                      !- Name
    Wall,                     !- Surface Type
    C_F,                      !- Construction Name
    Zone_0599100000262202,    !- Zone Name
    ,                         !- Space Name
    Outdoors,                 !- Outside Boundary Condition
    ,                         !- Outside Boundary Condition Object
    SunExposed,               !- Sun Exposure
    WindExposed,              !- Wind Exposure
    0.5,                      !- View Factor to Ground
    4,                        !- Number of Vertices
    14.109,                   !- Vertex 1 Xcoordinate
    13.44,                    !- Vertex 1 Ycoordinate
    6.294,                    !- Vertex 1 Zcoordinate
    14.109,                   !- Vertex 2 Xcoordinate
    13.44,                    !- Vertex 2 Ycoordinate
    0,                        !- Vertex 2 Zcoordinate
    14.84,                    !- Vertex 3 Xcoordinate
    14.289,                   !- Vertex 3 Ycoordinate
    0,                        !- Vertex 3 Zcoordinate
    14.84,                    !- Vertex 4 Xcoordinate
    14.289,                   !- Vertex 4 Ycoordinate
    6.294;                    !- Vertex 4 Zcoordinate

BUILDINGSURFACE:DETAILED,
    F_4,                      !- Name
    Wall,                     !- Surface Type
    C_F,                      !- Construction Name
    Zone_0599100000262202,    !- Zone Name
    ,                         !- Space Name
    Outdoors,                 !- Outside Boundary Condition
    ,                         !- Outside Boundary Condition Object
    SunExposed,               !- Sun Exposure
    WindExposed,              !- Wind Exposure
    0.5,                      !- View Factor to Ground
    4,                        !- Number of Vertices
    14.84,                    !- Vertex 1 Xcoordinate
    14.289,                   !- Vertex 1 Ycoordinate
    6.294,                    !- Vertex 1 Zcoordinate
    14.84,                    !- Vertex 2 Xcoordinate
    14.289,                   !- Vertex 2 Ycoordinate
    0,                        !- Vertex 2 Zcoordinate
    14.44,                    !- Vertex 3 Xcoordinate
    14.63,                    !- Vertex 3 Ycoordinate
    0,                        !- Vertex 3 Zcoordinate
    14.44,                    !- Vertex 4 Xcoordinate
    14.63,                    !- Vertex 4 Ycoordinate
    6.294;                    !- Vertex 4 Zcoordinate

BUILDINGSURFACE:DETAILED,
    F_5,                      !- Name
    Wall,                     !- Surface Type
    C_F,                      !- Construction Name
    Zone_0599100000262202,    !- Zone Name
    ,                         !- Space Name
    Outdoors,                 !- Outside Boundary Condition
    ,                         !- Outside Boundary Condition Object
    SunExposed,               !- Sun Exposure
    WindExposed,              !- Wind Exposure
    0.5,                      !- View Factor to Ground
    4,                        !- Number of Vertices
    14.44,                    !- Vertex 1 Xcoordinate
    14.63,                    !- Vertex 1 Ycoordinate
    6.294,                    !- Vertex 1 Zcoordinate
    14.44,                    !- Vertex 2 Xcoordinate
    14.63,                    !- Vertex 2 Ycoordinate
    0,                        !- Vertex 2 Zcoordinate
    15,                       !- Vertex 3 Xcoordinate
    15.279,                   !- Vertex 3 Ycoordinate
    0,                        !- Vertex 3 Zcoordinate
    15,                       !- Vertex 4 Xcoordinate
    15.279,                   !- Vertex 4 Ycoordinate
    6.294;                    !- Vertex 4 Zcoordinate

BUILDINGSURFACE:DETAILED,
    F_6,                      !- Name
    Wall,                     !- Surface Type
    C_F,                      !- Construction Name
    Zone_0599100000262202,    !- Zone Name
    ,                         !- Space Name
    Outdoors,                 !- Outside Boundary Condition
    ,                         !- Outside Boundary Condition Object
    SunExposed,               !- Sun Exposure
    WindExposed,              !- Wind Exposure
    0.5,                      !- View Factor to Ground
    4,                        !- Number of Vertices
    10.919,                   !- Vertex 1 Xcoordinate
    18.67,                    !- Vertex 1 Ycoordinate
    6.294,                    !- Vertex 1 Zcoordinate
    10.919,                   !- Vertex 2 Xcoordinate
    18.67,                    !- Vertex 2 Ycoordinate
    0,                        !- Vertex 2 Zcoordinate
    9.62,                     !- Vertex 3 Xcoordinate
    17.149,                   !- Vertex 3 Ycoordinate
    0,                        !- Vertex 3 Zcoordinate
    9.62,                     !- Vertex 4 Xcoordinate
    17.149,                   !- Vertex 4 Ycoordinate
    6.294;                    !- Vertex 4 Zcoordinate

BUILDINGSURFACE:DETAILED,
    F_7,                      !- Name
    Wall,                     !- Surface Type
    C_F,                      !- Construction Name
    Zone_0599100000262202,    !- Zone Name
    ,                         !- Space Name
    Outdoors,                 !- Outside Boundary Condition
    ,                         !- Outside Boundary Condition Object
    SunExposed,               !- Sun Exposure
    WindExposed,              !- Wind Exposure
    0.5,                      !- View Factor to Ground
    4,                        !- Number of Vertices
    13.109,                   !- Vertex 1 Xcoordinate
    18.87,                    !- Vertex 1 Ycoordinate
    6.294,                    !- Vertex 1 Zcoordinate
    13.109,                   !- Vertex 2 Xcoordinate
    18.87,                    !- Vertex 2 Ycoordinate
    0,                        !- Vertex 2 Zcoordinate
    10.919,                   !- Vertex 3 Xcoordinate
    18.67,                    !- Vertex 3 Ycoordinate
    0,                        !- Vertex 3 Zcoordinate
    10.919,                   !- Vertex 4 Xcoordinate
    18.67,                    !- Vertex 4 Ycoordinate
    6.294;                    !- Vertex 4 Zcoordinate

BUILDINGSURFACE:DETAILED,
    F_8,                      !- Name
    Wall,                     !- Surface Type
    C_F,                      !- Construction Name
    Zone_0599100000262202,    !- Zone Name
    ,                         !- Space Name
    Outdoors,                 !- Outside Boundary Condition
    ,                         !- Outside Boundary Condition Object
    SunExposed,               !- Sun Exposure
    WindExposed,              !- Wind Exposure
    0.5,                      !- View Factor to Ground
    4,                        !- Number of Vertices
    8.09,                     !- Vertex 1 Xcoordinate
    18.409,                   !- Vertex 1 Ycoordinate
    6.294,                    !- Vertex 1 Zcoordinate
    8.09,                     !- Vertex 2 Xcoordinate
    18.409,                   !- Vertex 2 Ycoordinate
    0,                        !- Vertex 2 Zcoordinate
    5.919,                    !- Vertex 3 Xcoordinate
    18.209,                   !- Vertex 3 Ycoordinate
    0,                        !- Vertex 3 Zcoordinate
    5.919,                    !- Vertex 4 Xcoordinate
    18.209,                   !- Vertex 4 Ycoordinate
    6.294;                    !- Vertex 4 Zcoordinate

BUILDINGSURFACE:DETAILED,
    F_9,                      !- Name
    Wall,                     !- Surface Type
    C_F,                      !- Construction Name
    Zone_0599100000262202,    !- Zone Name
    ,                         !- Space Name
    Outdoors,                 !- Outside Boundary Condition
    ,                         !- Outside Boundary Condition Object
    SunExposed,               !- Sun Exposure
    WindExposed,              !- Wind Exposure
    0.5,                      !- View Factor to Ground
    4,                        !- Number of Vertices
    9.62,                     !- Vertex 1 Xcoordinate
    17.149,                   !- Vertex 1 Ycoordinate
    6.294,                    !- Vertex 1 Zcoordinate
    9.62,                     !- Vertex 2 Xcoordinate
    17.149,                   !- Vertex 2 Ycoordinate
    0,                        !- Vertex 2 Zcoordinate
    8.09,                     !- Vertex 3 Xcoordinate
    18.409,                   !- Vertex 3 Ycoordinate
    0,                        !- Vertex 3 Zcoordinate
    8.09,                     !- Vertex 4 Xcoordinate
    18.409,                   !- Vertex 4 Ycoordinate
    6.294;                    !- Vertex 4 Zcoordinate

BUILDINGSURFACE:DETAILED,
    F_10,                     !- Name
    Wall,                     !- Surface Type
    C_F,                      !- Construction Name
    Zone_0599100000262202,    !- Zone Name
    ,                         !- Space Name
    Outdoors,                 !- Outside Boundary Condition
    ,                         !- Outside Boundary Condition Object
    SunExposed,               !- Sun Exposure
    WindExposed,              !- Wind Exposure
    0.5,                      !- View Factor to Ground
    4,                        !- Number of Vertices
    5.919,                    !- Vertex 1 Xcoordinate
    18.209,                   !- Vertex 1 Ycoordinate
    6.294,                    !- Vertex 1 Zcoordinate
    5.919,                    !- Vertex 2 Xcoordinate
    18.209,                   !- Vertex 2 Ycoordinate
    0,                        !- Vertex 2 Zcoordinate
    4.519,                    !- Vertex 3 Xcoordinate
    16.539,                   !- Vertex 3 Ycoordinate
    0,                        !- Vertex 3 Zcoordinate
    4.519,                    !- Vertex 4 Xcoordinate
    16.539,                   !- Vertex 4 Ycoordinate
    6.294;                    !- Vertex 4 Zcoordinate

BUILDINGSURFACE:DETAILED,
    F_11,                     !- Name
    Wall,                     !- Surface Type
    C_F,                      !- Construction Name
    Zone_0599100000262202,    !- Zone Name
    ,                         !- Space Name
    Outdoors,                 !- Outside Boundary Condition
    ,                         !- Outside Boundary Condition Object
    SunExposed,               !- Sun Exposure
    WindExposed,              !- Wind Exposure
    0.5,                      !- View Factor to Ground
    4,                        !- Number of Vertices
    4.519,                    !- Vertex 1 Xcoordinate
    16.539,                   !- Vertex 1 Ycoordinate
    6.294,                    !- Vertex 1 Zcoordinate
    4.519,                    !- Vertex 2 Xcoordinate
    16.539,                   !- Vertex 2 Ycoordinate
    0,                        !- Vertex 2 Zcoordinate
    4.699,                    !- Vertex 3 Xcoordinate
    14.48,                    !- Vertex 3 Ycoordinate
    0,                        !- Vertex 3 Zcoordinate
    4.699,                    !- Vertex 4 Xcoordinate
    14.48,                    !- Vertex 4 Ycoordinate
    6.294;                    !- Vertex 4 Zcoordinate

BUILDINGSURFACE:DETAILED,
    F_12,                     !- Name
    Wall,                     !- Surface Type
    C_F,                      !- Construction Name
    Zone_0599100000262202,    !- Zone Name
    ,                         !- Space Name
    Outdoors,                 !- Outside Boundary Condition
    ,                         !- Outside Boundary Condition Object
    SunExposed,               !- Sun Exposure
    WindExposed,              !- Wind Exposure
    0.5,                      !- View Factor to Ground
    4,                        !- Number of Vertices
    6.979,                    !- Vertex 1 Xcoordinate
    8.009,                    !- Vertex 1 Ycoordinate
    6.294,                    !- Vertex 1 Zcoordinate
    6.979,                    !- Vertex 2 Xcoordinate
    8.009,                    !- Vertex 2 Ycoordinate
    0,                        !- Vertex 2 Zcoordinate
    8.94,                     !- Vertex 3 Xcoordinate
    8.17,                     !- Vertex 3 Ycoordinate
    0,                        !- Vertex 3 Zcoordinate
    8.94,                     !- Vertex 4 Xcoordinate
    8.17,                     !- Vertex 4 Ycoordinate
    6.294;                    !- Vertex 4 Zcoordinate

BUILDINGSURFACE:DETAILED,
    F_13,                     !- Name
    Wall,                     !- Surface Type
    C_F,                      !- Construction Name
    Zone_0599100000262202,    !- Zone Name
    ,                         !- Space Name
    Outdoors,                 !- Outside Boundary Condition
    ,                         !- Outside Boundary Condition Object
    SunExposed,               !- Sun Exposure
    WindExposed,              !- Wind Exposure
    0.5,                      !- View Factor to Ground
    4,                        !- Number of Vertices
    3.96,                     !- Vertex 1 Xcoordinate
    7.75,                     !- Vertex 1 Ycoordinate
    6.294,                    !- Vertex 1 Zcoordinate
    3.96,                     !- Vertex 2 Xcoordinate
    7.75,                     !- Vertex 2 Ycoordinate
    0,                        !- Vertex 2 Zcoordinate
    5.599,                    !- Vertex 3 Xcoordinate
    6.36,                     !- Vertex 3 Ycoordinate
    0,                        !- Vertex 3 Zcoordinate
    5.599,                    !- Vertex 4 Xcoordinate
    6.36,                     !- Vertex 4 Ycoordinate