!- Windows Line endings 

Version,
    24.2;                     !- Version Identifier

SimulationControl,
    No,                       !- Do Zone Sizing Calculation
    No,                       !- Do System Sizing Calculation
    No,                       !- Do Plant Sizing Calculation
    No,                       !- Run Simulation for Sizing Periods
    Yes,                      !- Run Simulation for Weather File Run Periods
    No,                       !- Do HVAC Sizing Simulation for Sizing Periods
    1;                        !- Maximum Number of HVAC Sizing Simulation Passes

BUILDING,
    Pand.0599100000025761,    !- Name
    0,                        !- North Axis
    City,                     !- Terrain
    0.04,                     !- Loads Convergence Tolerance Value
    0.4,                      !- Temperature Convergence Tolerance Value
    FullExterior,             !- Solar Distribution
    25,                       !- Maximum Number of Warmup Days
    1;                        !- Minimum Number of Warmup Days

Timestep,
    6;                        !- Number of Timesteps per Hour

Site:Location,
    Rotterdam.The.Hague.AP_ZH_NLD Design_Conditions,    !- Name
    51.96,                    !- Latitude
    4.45,                     !- Longitude
    1,                        !- Time Zone
    -4.5;                     !- Elevation

RunPeriod,
    Run Period 1,             !- Name
    1,                        !- Begin Month
    1,                        !- Begin Day of Month
    ,                         !- Begin Year
    12,                       !- End Month
    31,                       !- End Day of Month
    ,                         !- End Year
    ,                         !- Day of Week for Start Day
    Yes,                      !- Use Weather File Holidays and Special Days
    Yes,                      !- Use Weather File Daylight Saving Period
    No,                       !- Apply Weekend Holiday Rule
    Yes,                      !- Use Weather File Rain Indicators
    Yes,                      !- Use Weather File Snow Indicators
    No,                       !- Treat Weather as Actual
    Hour24;                   !- First Hour Interpolation Starting Values

RunPeriodControl:DaylightSavingTime,
    Last Sunday in March,     !- Start Date
    Last Sunday in October;    !- End Date

SITE:GROUNDTEMPERATURE:BUILDINGSURFACE,
    18,                       !- January Ground Temperature
    18,                       !- February Ground Temperature
    18,                       !- March Ground Temperature
    18,                       !- April Ground Temperature
    18,                       !- May Ground Temperature
    18,                       !- June Ground Temperature
    18,                       !- July Ground Temperature
    18,                       !- August Ground Temperature
    18,                       !- September Ground Temperature
    18,                       !- October Ground Temperature
    18,                       !- November Ground Temperature
    18;                       !- December Ground Temperature

SCHEDULETYPELIMITS,
    Temperature,              !- Name
    -100,                     !- Lower Limit Value
    100,                      !- Upper Limit Value
    CONTINUOUS,               !- Numeric Type
    Temperature;              !- Unit Type

SCHEDULETYPELIMITS,
    Fraction,                 !- Name
    0,                        !- Lower Limit Value
    1,                        !- Upper Limit Value
    CONTINUOUS,               !- Numeric Type
    Dimensionless;            !- Unit Type

SCHEDULETYPELIMITS,
    Control Type,             !- Name
    0,                        !- Lower Limit Value
    4,                        !- Upper Limit Value
    DISCRETE,                 !- Numeric Type
    Dimensionless;            !- Unit Type

SCHEDULE:COMPACT,
    HeatingSetpoint_Zone_0599100000025761,    !- Name
    Temperature,              !- Schedule Type Limits Name
    Through: 12/31,           !- Field 1
    For: AllDays,             !- Field 2
    Until: 24:00,             !- Field 3
    21.0;                     !- Field 4

SCHEDULE:COMPACT,
    CoolingSetpoint_Zone_0599100000025761,    !- Name
    Temperature,              !- Schedule Type Limits Name
    Through: 12/31,           !- Field 1
    For: AllDays,             !- Field 2
    Until: 24:00,             !- Field 3
    24.0;                     !- Field 4

SCHEDULE:COMPACT,
    DualSetpointControlType,    !- Name
    Control Type,             !- Schedule Type Limits Name
    Through: 12/31,           !- Field 1
    For: AllDays,             !- Field 2
    Until: 24:00,             !- Field 3
    4;                        !- Field 4

SCHEDULE:COMPACT,
    AlwaysOn,                 !- Name
    Fraction,                 !- Schedule Type Limits Name
    Through: 12/31,           !- Field 1
    For: AllDays,             !- Field 2
    Until: 24:00,             !- Field 3
    1.0;                      !- Field 4

MATERIAL,
    G.D.1992-2005,            !- Name
    MediumSmooth,             !- Roughness
    0.15,                     !- Thickness
    0.06,                     !- Conductivity
    540,                      !- Density
    1210,                     !- Specific Heat
    0.9,                      !- Thermal Absorptance
    0.7,                      !- Solar Absorptance
    0.7;                      !- Visible Absorptance

MATERIAL,
    F.D.1992-2005,            !- Name
    Rough,                    !- Roughness
    0.3,                      !- Thickness
    0.12,                     !- Conductivity
    1920,                     !- Density
    840,                      !- Specific Heat
    0.9,                      !- Thermal Absorptance
    0.7,                      !- Solar Absorptance
    0.7;                      !- Visible Absorptance

MATERIAL,
    R.D.1992-2005,            !- Name
    MediumRough,              !- Roughness
    0.2,                      !- Thickness
    0.08,                     !- Conductivity
    1500,                     !- Density
    1000,                     !- Specific Heat
    0.9,                      !- Thermal Absorptance
    0.7,                      !- Solar Absorptance
    0.7;                      !- Visible Absorptance

WINDOWMATERIAL:SIMPLEGLAZINGSYSTEM,
    W.D.1992-2005,            !- Name
    2.9,                      !- UFactor
    0.6,                      !- Solar Heat Gain Coefficient
    0.6;                      !- Visible Transmittance

CONSTRUCTION,
    C_G,                      !- Name
    G.D.1992-2005;            !- Outside Layer

CONSTRUCTION,
    C_F,                      !- Name
    F.D.1992-2005;            !- Outside Layer

CONSTRUCTION,
    C_R,                      !- Name
    R.D.1992-2005;            !- Outside Layer

GlobalGeometryRules,
    UpperLeftCorner,          !- Starting Vertex Position
    Counterclockwise,         !- Vertex Entry Direction
    World,                    !- Coordinate System
    World,                    !- Daylighting Reference Point Coordinate System
    Relative;                 !- Rectangular Surface Coordinate System

ZONE,
    Zone_0599100000025761,    !- Name
    0,                        !- Direction of Relative North
    0,                        !- X Origin
    0,                        !- Y Origin
    0,                        !- Z Origin
    1,                        !- Type
    1,                        !- Multiplier
    Autocalculate,            !- Ceiling Height
    Autocalculate,            !- Volume
    autocalculate,            !- Floor Area
    ,                         !- Zone Inside Convection Algorithm
    ,                         !- Zone Outside Convection Algorithm
    Yes;                      !- Part of Total Floor Area

BUILDINGSURFACE:DETAILED,
    G_0,                      !- Name
    Floor,                    !- Surface Type
    C_G,                      !- Construction Name
    Zone_0599100000025761,    !- Zone Name
    ,                         !- Space Name
    Ground,                   !- Outside Boundary Condition
    ,                         !- Outside Boundary Condition Object
    SunExposed,               !- Sun Exposure
    WindExposed,              !- Wind Exposure
    0.5,                      !- View Factor to Ground
    31,                       !- Number of Vertices
    11.816,                   !- Vertex 1 Xcoordinate
    6.238,                    !- Vertex 1 Ycoordinate
    0,                        !- Vertex 1 Zcoordinate
    11.656,                   !- Vertex 2 Xcoordinate
    6.262,                    !- Vertex 2 Ycoordinate
    0,                        !- Vertex 2 Zcoordinate
    10.41,                    !- Vertex 3 Xcoordinate
    6.45,                     !- Vertex 3 Ycoordinate
    0,                        !- Vertex 3 Zcoordinate
    10.2,                     !- Vertex 4 Xcoordinate
    6.261,                    !- Vertex 4 Ycoordinate
    0,                        !- Vertex 4 Zcoordinate
    9.952,                    !- Vertex 5 Xcoordinate
    6.125,                    !- Vertex 5 Ycoordinate
    0,                        !- Vertex 5 Zcoordinate
    9.818,                    !- Vertex 6 Xcoordinate
    6.076,                    !- Vertex 6 Ycoordinate
    0,                        !- Vertex 6 Zcoordinate
    9.54,                     !- Vertex 7 Xcoordinate
    6.028,                    !- Vertex 7 Ycoordinate
    0,                        !- Vertex 7 Zcoordinate
    9.257,                    !- Vertex 8 Xcoordinate
    6.041,                    !- Vertex 8 Ycoordinate
    0,                        !- Vertex 8 Zcoordinate
    8.985,                    !- Vertex 9 Xcoordinate
    6.117,                    !- Vertex 9 Ycoordinate
    0,                        !- Vertex 9 Zcoordinate
    8.735,                    !- Vertex 10 Xcoordinate
    6.25,                     !- Vertex 10 Ycoordinate
    0,                        !- Vertex 10 Zcoordinate
    8.521,                    !- Vertex 11 Xcoordinate
    6.435,                    !- Vertex 11 Ycoordinate
    0,                        !- Vertex 11 Zcoordinate
    8.354,                    !- Vertex 12 Xcoordinate
    6.664,                    !- Vertex 12 Ycoordinate
    0,                        !- Vertex 12 Zcoordinate
    8.29,                     !- Vertex 13 Xcoordinate
    6.791,                    !- Vertex 13 Ycoordinate
    0,                        !- Vertex 13 Zcoordinate
    7.98,                     !- Vertex 14 Xcoordinate
    6.841,                    !- Vertex 14 Ycoordinate
    0,                        !- Vertex 14 Zcoordinate
    5.189,                    !- Vertex 15 Xcoordinate
    0.257,                    !- Vertex 15 Ycoordinate
    0,                        !- Vertex 15 Zcoordinate
    0.038,                    !- Vertex 16 Xcoordinate
    2.249,                    !- Vertex 16 Ycoordinate
    0,                        !- Vertex 16 Zcoordinate
    2.401,                    !- Vertex 17 Xcoordinate
    7.82,                     !- Vertex 17 Ycoordinate
    0,                        !- Vertex 17 Zcoordinate
    2.011,                    !- Vertex 18 Xcoordinate
    8.5,                      !- Vertex 18 Ycoordinate
    0,                        !- Vertex 18 Zcoordinate
    1.851,                    !- Vertex 19 Xcoordinate
    9.26,                     !- Vertex 19 Ycoordinate
    0,                        !- Vertex 19 Zcoordinate
    1.941,                    !- Vertex 20 Xcoordinate
    10.031,                   !- Vertex 20 Ycoordinate
    0,                        !- Vertex 20 Zcoordinate
    2.261,                    !- Vertex 21 Xcoordinate
    10.74,                    !- Vertex 21 Ycoordinate
    0,                        !- Vertex 21 Zcoordinate
    2.75,                     !- Vertex 22 Xcoordinate
    11.341,                   !- Vertex 22 Ycoordinate
    0,                        !- Vertex 22 Zcoordinate
    3.41,                     !- Vertex 23 Xcoordinate
    11.76,                    !- Vertex 23 Ycoordinate
    0,                        !- Vertex 23 Zcoordinate
    4.171,                    !- Vertex 24 Xcoordinate
    11.94,                    !- Vertex 24 Ycoordinate
    0,                        !- Vertex 24 Zcoordinate
    6.551,                    !- Vertex 25 Xcoordinate
    17.605,                   !- Vertex 25 Ycoordinate
    0,                        !- Vertex 25 Zcoordinate
    6.827,                    !- Vertex 26 Xcoordinate
    17.485,                   !- Vertex 26 Ycoordinate
    0,                        !- Vertex 26 Zcoordinate
    6.848,                    !- Vertex 27 Xcoordinate
    17.533,                   !- Vertex 27 Ycoordinate
    0,                        !- Vertex 27 Zcoordinate
    13.811,                   !- Vertex 28 Xcoordinate
    14.591,                   !- Vertex 28 Ycoordinate
    0,                        !- Vertex 28 Zcoordinate
    11.43,                    !- Vertex 29 Xcoordinate
    8.961,                    !- Vertex 29 Ycoordinate
    0,                        !- Vertex 29 Zcoordinate
    12.961,                   !- Vertex 30 Xcoordinate
    8.331,                    !- Vertex 30 Ycoordinate
    0,                        !- Vertex 30 Zcoordinate
    12.061,                   !- Vertex 31 Xcoordinate
    6.2,                      !- Vertex 31 Ycoordinate
    0;                        !- Vertex 31 Zcoordinate

BUILDINGSURFACE:DETAILED,
    F_1,                      !- Name
    Wall,                     !- Surface Type
    C_F,                      !- Construction Name
    Zone_0599100000025761,    !- Zone Name
    ,                         !- Space Name
    Outdoors,                 !- Outside Boundary Condition
    ,                         !- Outside Boundary Condition Object
    SunExposed,               !- Sun Exposure
    WindExposed,              !- Wind Exposure
    0.5,                      !- View Factor to Ground
    4,                        !- Number of Vertices
    8.354,                    !- Vertex 1 Xcoordinate
    6.664,                    !- Vertex 1 Ycoordinate
    6.215,                    !- Vertex 1 Zcoordinate
    8.354,                    !- Vertex 2 Xcoordinate
    6.664,                    !- Vertex 2 Ycoordinate
    0,                        !- Vertex 2 Zcoordinate
    8.521,                    !- Vertex 3 Xcoordinate
    6.435,                    !- Vertex 3 Ycoordinate
    0,                        !- Vertex 3 Zcoordinate
    8.521,                    !- Vertex 4 Xcoordinate
    6.435,                    !- Vertex 4 Ycoordinate
    6.215;                    !- Vertex 4 Zcoordinate

BUILDINGSURFACE:DETAILED,
    F_2,                      !- Name
    Wall,                     !- Surface Type
    C_F,                      !- Construction Name
    Zone_0599100000025761,    !- Zone Name
    ,                         !- Space Name
    Outdoors,                 !- Outside Boundary Condition
    ,                         !- Outside Boundary Condition Object
    SunExposed,               !- Sun Exposure
    WindExposed,              !- Wind Exposure
    0.5,                      !- View Factor to Ground
    4,                        !- Number of Vertices
    8.521,                    !- Vertex 1 Xcoordinate
    6.435,                    !- Vertex 1 Ycoordinate
    6.215,                    !- Vertex 1 Zcoordinate
    8.521,                    !- Vertex 2 Xcoordinate
    6.435,                    !- Vertex 2 Ycoordinate
    0,                        !- Vertex 2 Zcoordinate
    8.735,                    !- Vertex 3 Xcoordinate
    6.25,                     !- Vertex 3 Ycoordinate
    0,                        !- Vertex 3 Zcoordinate
    8.735,                    !- Vertex 4 Xcoordinate
    6.25,                     !- Vertex 4 Ycoordinate
    6.215;                    !- Vertex 4 Zcoordinate

BUILDINGSURFACE:DETAILED,
    F_3,                      !- Name
    Wall,                     !- Surface Type
    C_F,                      !- Construction Name
    Zone_0599100000025761,    !- Zone Name
    ,                         !- Space Name
    Outdoors,                 !- Outside Boundary Condition
    ,                         !- Outside Boundary Condition Object
    SunExposed,               !- Sun Exposure
    WindExposed,              !- Wind Exposure
    0.5,                      !- View Factor to Ground
    4,                        !- Number of Vertices
    3.41,                     !- Vertex 1 Xcoordinate
    11.76,                    !- Vertex 1 Ycoordinate
    6.215,                    !- Vertex 1 Zcoordinate
    3.41,                     !- Vertex 2 Xcoordinate
    11.76,                    !- Vertex 2 Ycoordinate
    0,                        !- Vertex 2 Zcoordinate
    2.75,                     !- Vertex 3 Xcoordinate
    11.341,                   !- Vertex 3 Ycoordinate
    0,                        !- Vertex 3 Zcoordinate
    2.75,                     !- Vertex 4 Xcoordinate
    11.341,                   !- Vertex 4 Ycoordinate
    6.215;                    !- Vertex 4 Zcoordinate

BUILDINGSURFACE:DETAILED,
    F_4,                      !- Name
    Wall,                     !- Surface Type
    C_F,                      !- Construction Name
    Zone_0599100000025761,    !- Zone Name
    ,                         !- Space Name
    Outdoors,                 !- Outside Boundary Condition
    ,                         !- Outside Boundary Condition Object
    SunExposed,               !- Sun Exposure
    WindExposed,              !- Wind Exposure
    0.5,                      !- View Factor to Ground
    4,                        !- Number of Vertices
    2.75,                     !- Vertex 1 Xcoordinate
    11.341,                   !- Vertex 1 Ycoordinate
    6.215,                    !- Vertex 1 Zcoordinate
    2.75,                     !- Vertex 2 Xcoordinate
    11.341,                   !- Vertex 2 Ycoordinate
    0,                        !- Vertex 2 Zcoordinate
    2.261,                    !- Vertex 3 Xcoordinate
    10.74,                    !- Vertex 3 Ycoordinate
    0,                        !- Vertex 3 Zcoordinate
    2.261,                    !- Vertex 4 Xcoordinate
    10.74,                    !- Vertex 4 Ycoordinate
    6.215;                    !- Vertex 4 Zcoordinate

BUILDINGSURFACE:DETAILED,
    F_5,                      !- Name
    Wall,                     !- Surface Type
    C_F,                      !- Construction Name
    Zone_0599100000025761,    !- Zone Name
    ,                         !- Space Name
    Outdoors,                 !- Outside Boundary Condition
    ,                         !- Outside Boundary Condition Object
    SunExposed,               !- Sun Exposure
    WindExposed,              !- Wind Exposure
    0.5,                      !- View Factor to Ground
    4,                        !- Number of Vertices
    1.941,                    !- Vertex 1 Xcoordinate
    10.031,                   !- Vertex 1 Ycoordinate
    6.215,                    !- Vertex 1 Zcoordinate
    1.941,                    !- Vertex 2 Xcoordinate
    10.031,                   !- Vertex 2 Ycoordinate
    0,                        !- Vertex 2 Zcoordinate
    1.851,                    !- Vertex 3 Xcoordinate
    9.26,                     !- Vertex 3 Ycoordinate
    0,                        !- Vertex 3 Zcoordinate
    1.851,                    !- Vertex 4 Xcoordinate
    9.26,                     !- Vertex 4 Ycoordinate
    6.215;                    !- Vertex 4 Zcoordinate

BUILDINGSURFACE:DETAILED,
    F_6,                      !- Name
    Wall,                     !- Surface Type
    C_F,                      !- Construction Name
    Zone_0599100000025761,    !- Zone Name
    ,                         !- Space Name
    Outdoors,                 !- Outside Boundary Condition
    ,                         !- Outside Boundary Condition Object
    SunExposed,               !- Sun Exposure
    WindExposed,              !- Wind Exposure
    0.5,                      !- View Factor to Ground
    4,                        !- Number of Vertices
    1.851,                    !- Vertex 1 Xcoordinate
    9.26,                     !- Vertex 1 Ycoordinate
    6.215,                    !- Vertex 1 Zcoordinate
    1.851,                    !- Vertex 2 Xcoordinate
    9.26,                     !- Vertex 2 Ycoordinate
    0,                        !- Vertex 2 Zcoordinate
    2.011,                    !- Vertex 3 Xcoordinate
    8.5,                      !- Vertex 3 Ycoordinate
    0,                        !- Vertex 3 Zcoordinate
    2.011,                    !- Vertex 4 Xcoordinate
    8.5,                      !- Vertex 4 Ycoordinate
    6.215;                    !- Vertex 4 Zcoordinate

BUILDINGSURFACE:DETAILED,
    F_7,                      !- Name
    Wall,                     !- Surface Type
    C_F,                      !- Construction Name
    Zone_0599100000025761,    !- Zone Name
    ,                         !- Space Name
    Outdoors,                 !- Outside Boundary Condition
    ,                         !- Outside Boundary Condition Object
    SunExposed,               !- Sun Exposure
    WindExposed,              !- Wind Exposure
    0.5,                      !- View Factor to Ground
    4,                        !- Number of Vertices
    2.261,                    !- Vertex 1 Xcoordinate
    10.74,                    !- Vertex 1 Ycoordinate
    6.215,                    !- Vertex 1 Zcoordinate
    2.261,                    !- Vertex 2 Xcoordinate
    10.74,                    !- Vertex 2 Ycoordinate
    0,                        !- Vertex 2 Zcoordinate
    1.941,                    !- Vertex 3 Xcoordinate
    10.031,                   !- Vertex 3 Ycoordinate
    0,                        !- Vertex 3 Zcoordinate
    1.941,                    !- Vertex 4 Xcoordinate
    10.031,                   !- Vertex 4 Ycoordinate
    6.215;                    !- Vertex 4 Zcoordinate

BUILDINGSURFACE:DETAILED,
    F_8,                      !- Name
    Wall,                     !- Surface Type
    C_F,                      !- Construction Name
    Zone_0599100000025761,    !- Zone Name
    ,                         !- Space Name
    Outdoors,                 !- Outside Boundary Condition
    ,                         !- Outside Boundary Condition Object
    SunExposed,               !- Sun Exposure
    WindExposed,              !- Wind Exposure
    0.5,                      !- View Factor to Ground
    4,                        !- Number of Vertices
    7.98,                     !- Vertex 1 Xcoordinate
    6.841,                    !- Vertex 1 Ycoordinate
    6.215,                    !- Vertex 1 Zcoordinate
    7.98,                     !- Vertex 2 Xcoordinate
    6.841,                    !- Vertex 2 Ycoordinate
    0,                        !- Vertex 2 Zcoordinate
    8.29,                     !- Vertex 3 Xcoordinate
    6.791,                    !- Vertex 3 Ycoordinate
    0,                        !- Vertex 3 Zcoordinate
    8.29,                     !- Vertex 4 Xcoordinate
    6.791,                    !- Vertex 4 Ycoordinate
    6.215;                    !- Vertex 4 Zcoordinate

BUILDINGSURFACE:DETAILED,
    F_9,                      !- Name
    Wall,                     !- Surface Type
    C_F,                      !- Construction Name
    Zone_0599100000025761,    !- Zone Name
    ,                         !- Space Name
    Outdoors,                 !- Outside Boundary Condition
    ,                         !- Outside Boundary Condition Object
    SunExposed,               !- Sun Exposure
    WindExposed,              !- Wind Exposure
    0.5,                      !- View Factor to Ground
    4,                        !- Number of Vertices
    8.29,                     !- Vertex 1 Xcoordinate
    6.791,                    !- Vertex 1 Ycoordinate
    6.215,                    !- Vertex 1 Zcoordinate
    8.29,                     !- Vertex 2 Xcoordinate
    6.791,                    !- Vertex 2 Ycoordinate
    0,                        !- Vertex 2 Zcoordinate
    8.354,                    !- Vertex 3 Xcoordinate
    6.664,                    !- Vertex 3 Ycoordinate
    0,                        !- Vertex 3 Zcoordinate
    8.354,                    !- Vertex 4 Xcoordinate
    6.664,                    !- Vertex 4 Ycoordinate
    6.215;                    !- Vertex 4 Zcoordinate

BUILDINGSURFACE:DETAILED,
    F_10,                     !- Name
    Wall,                     !- Surface Type
    C_F,                      !- Construction Name
    Zone_0599100000025761,    !- Zone Name
    ,                         !- Space Name
    Outdoors,                 !- Outside Boundary Condition
    ,                         !- Outside Boundary Condition Object
    SunExposed,               !- Sun Exposure
    WindExposed,              !- Wind Exposure
    0.5,                      !- View Factor to Ground
    4,                        !- Number of Vertices
    8.985,                    !- Vertex 1 Xcoordinate
    6.117,                    !- Vertex 1 Ycoordinate
    6.215,                    !- Vertex 1 Zcoordinate
    8.985,                    !- Vertex 2 Xcoordinate
    6.117,                    !- Vertex 2 Ycoordinate
    0,                        !- Vertex 2 Zcoordinate
    9.257,                    !- Vertex 3 Xcoordinate
    6.041,                    !- Vertex 3 Ycoordinate
    0,                        !- Vertex 3 Zcoordinate
    9.257,                    !- Vertex 4 Xcoordinate
    6.041,                    !- Vertex 4 Ycoordinate
    6.215;                    !- Vertex 4 Zcoordinate

BUILDINGSURFACE:DETAILED,
    F_11,                     !- Name
    Wall,                     !- Surface Type
    C_F,                      !- Construction Name
    Zone_0599100000025761,    !- Zone Name
    ,                         !- Space Name
    Outdoors,                 !- Outside Boundary Condition
    ,                         !- Outside Boundary Condition Object
    SunExposed,               !- Sun Exposure
    WindExposed,              !- Wind Exposure
    0.5,                      !- View Factor to Ground
    4,                        !- Number of Vertices
    9.257,                    !- Vertex 1 Xcoordinate
    6.041,                    !- Vertex 1 Ycoordinate
    6.215,                    !- Vertex 1 Zcoordinate
    9.257,                    !- Vertex 2 Xcoordinate
    6.041,                    !- Vertex 2 Ycoordinate
    0,                        !- Vertex 2 Zcoordinate
    9.54,                     !- Vertex 3 Xcoordinate
    6.028,                    !- Vertex 3 Ycoordinate
    0,                        !- Vertex 3 Zcoordinate
    9.54,                     !- Vertex 4 Xcoordinate
    6.028,                    !- Vertex 4 Ycoordinate
    6.215;                    !- Vertex 4 Zcoordinate

BUILDINGSURFACE:DETAILED,
    F_12,                     !- Name
    Wall,                     !- Surface Type
    C_F,                      !- Construction Name
    Zone_0599100000025761,    !- Zone Name
    ,                         !- Space Name
    Outdoors,                 !- Outside Boundary Condition
    ,                         !- Outside Boundary Condition Object
    SunExposed,               !- Sun Exposure
    WindExposed,              !- Wind Exposure
    0.5,                      !- View Factor to Ground
    4,                        !- Number of Vertices
    5.189,                    !- Vertex 1 Xcoordinate
    0.257,                    !- Vertex 1 Ycoordinate
    6.215,                    !- Vertex 1 Zcoordinate
    5.189,                    !- Vertex 2 Xcoordinate
    0.257,                    !- Vertex 2 Ycoordinate
    0,                        !- Vertex 2 Zcoordinate
    7.98,                     !- Vertex 3 Xcoordinate
    6.841,                    !- Vertex 3 Ycoordinate
    0,                        !- Vertex 3 Zcoordinate
    7.98,                     !- Vertex 4 Xcoordinate
    6.841,                    !- Vertex 4 Ycoordinate
    6.215;                    !- Vertex 4 Zcoordinate

BUILDINGSURFACE:DETAILED,
    F_13,                     !- Name
    Wall,                     !- Surface Type
    C_F,                      !- Construction Name
    Zone_0599100000025761,    !- Zone Name
    ,                         !- Space Name
    Outdoors,                 !- Outside Boundary Condition
    ,                         !- Outside Boundary Condition Object
    SunExposed,               !- Sun Exposure
    WindExposed,              !- Wind Exposure
    0.5,                      !- View Factor to Ground
    4,                        !- Number of Vertices
    9.54,                     !- Vertex 1 Xcoordinate
    6.028,                    !- Vertex 1 Ycoordinate
    6.215,                    !- Vertex 1 Zcoordinate
    9.54,                     !- Vertex 2 Xcoordinate
    6.028,                    !- Vertex 2 Ycoordinate
    0,                        !- Vertex 2 Zcoordinate
    9.818,                    !- Vertex 3 Xcoordinate
    6.076,                    !- Vertex 3 Ycoordinate
    0,                        !- Vertex 3 Zcoordinate
    9.818,                    !- Vertex 4 Xcoordinate
    6.076,                    !- Vertex 4 Ycoordinate
    6.215;                    !- Vertex 4 Zcoordinate

BUILDINGSURFACE:DETAILED,
    F_14,                     !- Name
    Wall,                     !- Surface Type
    C_F,                      !- Construction Name
    Zone_0599100000025761,    !- Zone Name
    ,                         !- Space Name
    Outdoors,                 !- Outside Boundary Condition
    ,                         !- Outside Boundary Condition Object
    SunExposed,               !- Sun Exposure
    WindExposed,              !- Wind Exposure
    0.5,                      !- View Factor to Ground
    4,                        !- Number of Vertices
    9.818,                    !- Vertex 1 Xcoordinate