!- Windows Line endings 

Version,
    24.2;                     !- Version Identifier

SimulationControl,
    No,                       !- Do Zone Sizing Calculation
    No,                       !- Do System Sizing Calculation
    No,                       !- Do Plant Sizing Calculation
    No,                       !- Run Simulation for Sizing Periods
    Yes,                      !- Run Simulation for Weather File Run Periods
    No,                       !- Do HVAC Sizing Simulation for Sizing Periods
    1;                        !- Maximum Number of HVAC Sizing Simulation Passes

BUILDING,
    Pand.0599100000678117,    !- Name
    0,                        !- North Axis
    City,                     !- Terrain
    0.04,                     !- Loads Convergence Tolerance Value
    0.4,                      !- Temperature Convergence Tolerance Value
    FullExterior,             !- Solar Distribution
    25,                       !- Maximum Number of Warmup Days
    1;                        !- Minimum Number of Warmup Days

Timestep,
    6;                        !- Number of Timesteps per Hour

Site:Location,
    Rotterdam.The.Hague.AP_ZH_NLD Design_Conditions,    !- Name
    51.96,                    !- Latitude
    4.45,                     !- Longitude
    1,                        !- Time Zone
    -4.5;                     !- Elevation

RunPeriod,
    Run Period 1,             !- Name
    1,                        !- Begin Month
    1,                        !- Begin Day of Month
    ,                         !- Begin Year
    12,                       !- End Month
    31,                       !- End Day of Month
    ,                         !- End Year
    ,                         !- Day of Week for Start Day
    Yes,                      !- Use Weather File Holidays and Special Days
    Yes,                      !- Use Weather File Daylight Saving Period
    No,                       !- Apply Weekend Holiday Rule
    Yes,                      !- Use Weather File Rain Indicators
    Yes,                      !- Use Weather File Snow Indicators
    No,                       !- Treat Weather as Actual
    Hour24;                   !- First Hour Interpolation Starting Values

RunPeriodControl:DaylightSavingTime,
    Last Sunday in March,     !- Start Date
    Last Sunday in October;    !- End Date

SITE:GROUNDTEMPERATURE:BUILDINGSURFACE,
    18,                       !- January Ground Temperature
    18,                       !- February Ground Temperature
    18,                       !- March Ground Temperature
    18,                       !- April Ground Temperature
    18,                       !- May Ground Temperature
    18,                       !- June Ground Temperature
    18,                       !- July Ground Temperature
    18,                       !- August Ground Temperature
    18,                       !- September Ground Temperature
    18,                       !- October Ground Temperature
    18,                       !- November Ground Temperature
    18;                       !- December Ground Temperature

SCHEDULETYPELIMITS,
    Temperature,              !- Name
    -100,                     !- Lower Limit Value
    100,                      !- Upper Limit Value
    CONTINUOUS,               !- Numeric Type
    Temperature;              !- Unit Type

SCHEDULETYPELIMITS,
    Fraction,                 !- Name
    0,                        !- Lower Limit Value
    1,                        !- Upper Limit Value
    CONTINUOUS,               !- Numeric Type
    Dimensionless;            !- Unit Type

SCHEDULETYPELIMITS,
    Control Type,             !- Name
    0,                        !- Lower Limit Value
    4,                        !- Upper Limit Value
    DISCRETE,                 !- Numeric Type
    Dimensionless;            !- Unit Type

SCHEDULE:COMPACT,
    HeatingSetpoint_Zone_0599100000678117,    !- Name
    Temperature,              !- Schedule Type Limits Name
    Through: 12/31,           !- Field 1
    For: AllDays,             !- Field 2
    Until: 24:00,             !- Field 3
    21.0;                     !- Field 4

SCHEDULE:COMPACT,
    CoolingSetpoint_Zone_0599100000678117,    !- Name
    Temperature,              !- Schedule Type Limits Name
    Through: 12/31,           !- Field 1
    For: AllDays,             !- Field 2
    Until: 24:00,             !- Field 3
    24.0;                     !- Field 4

SCHEDULE:COMPACT,
    DualSetpointControlType,    !- Name
    Control Type,             !- Schedule Type Limits Name
    Through: 12/31,           !- Field 1
    For: AllDays,             !- Field 2
    Until: 24:00,             !- Field 3
    4;                        !- Field 4

SCHEDULE:COMPACT,
    AlwaysOn,                 !- Name
    Fraction,                 !- Schedule Type Limits Name
    Through: 12/31,           !- Field 1
    For: AllDays,             !- Field 2
    Until: 24:00,             !- Field 3
    1.0;                      !- Field 4

MATERIAL,
    G.D.1965,                 !- Name
    MediumSmooth,             !- Roughness
    0.15,                     !- Thickness
    1,                        !- Conductivity
    540,                      !- Density
    1210,                     !- Specific Heat
    0.9,                      !- Thermal Absorptance
    0.7,                      !- Solar Absorptance
    0.7;                      !- Visible Absorptance

MATERIAL,
    F.D.1965,                 !- Name
    Rough,                    !- Roughness
    0.3,                      !- Thickness
    0.8571428571428572,       !- Conductivity
    1920,                     !- Density
    840,                      !- Specific Heat
    0.9,                      !- Thermal Absorptance
    0.7,                      !- Solar Absorptance
    0.7;                      !- Visible Absorptance

MATERIAL,
    R.D.1965,                 !- Name
    MediumRough,              !- Roughness
    0.2,                      !- Thickness
    0.08,                     !- Conductivity
    1500,                     !- Density
    1000,                     !- Specific Heat
    0.9,                      !- Thermal Absorptance
    0.7,                      !- Solar Absorptance
    0.7;                      !- Visible Absorptance

WINDOWMATERIAL:SIMPLEGLAZINGSYSTEM,
    W.D.1965,                 !- Name
    1.8,                      !- UFactor
    0.4,                      !- Solar Heat Gain Coefficient
    0.6;                      !- Visible Transmittance

CONSTRUCTION,
    C_G,                      !- Name
    G.D.1965;                 !- Outside Layer

CONSTRUCTION,
    C_F,                      !- Name
    F.D.1965;                 !- Outside Layer

CONSTRUCTION,
    C_R,                      !- Name
    R.D.1965;                 !- Outside Layer

GlobalGeometryRules,
    UpperLeftCorner,          !- Starting Vertex Position
    Counterclockwise,         !- Vertex Entry Direction
    World,                    !- Coordinate System
    World,                    !- Daylighting Reference Point Coordinate System
    Relative;                 !- Rectangular Surface Coordinate System

ZONE,
    Zone_0599100000678117,    !- Name
    0,                        !- Direction of Relative North
    0,                        !- X Origin
    0,                        !- Y Origin
    0,                        !- Z Origin
    1,                        !- Type
    1,                        !- Multiplier
    Autocalculate,            !- Ceiling Height
    Autocalculate,            !- Volume
    autocalculate,            !- Floor Area
    ,                         !- Zone Inside Convection Algorithm
    ,                         !- Zone Outside Convection Algorithm
    Yes;                      !- Part of Total Floor Area

BUILDINGSURFACE:DETAILED,
    G_0,                      !- Name
    Floor,                    !- Surface Type
    C_G,                      !- Construction Name
    Zone_0599100000678117,    !- Zone Name
    ,                         !- Space Name
    Ground,                   !- Outside Boundary Condition
    ,                         !- Outside Boundary Condition Object
    SunExposed,               !- Sun Exposure
    WindExposed,              !- Wind Exposure
    0.5,                      !- View Factor to Ground
    53,                       !- Number of Vertices
    18.223,                   !- Vertex 1 Xcoordinate
    12.64,                    !- Vertex 1 Ycoordinate
    0,                        !- Vertex 1 Zcoordinate
    18.243,                   !- Vertex 2 Xcoordinate
    12.172,                   !- Vertex 2 Ycoordinate
    0,                        !- Vertex 2 Zcoordinate
    18.955,                   !- Vertex 3 Xcoordinate
    11.536,                   !- Vertex 3 Ycoordinate
    0,                        !- Vertex 3 Zcoordinate
    17.75,                    !- Vertex 4 Xcoordinate
    10.119,                   !- Vertex 4 Ycoordinate
    0,                        !- Vertex 4 Zcoordinate
    19.277,                   !- Vertex 5 Xcoordinate
    8.733,                    !- Vertex 5 Ycoordinate
    0,                        !- Vertex 5 Zcoordinate
    16.167,                   !- Vertex 6 Xcoordinate
    4.985,                    !- Vertex 6 Ycoordinate
    0,                        !- Vertex 6 Zcoordinate
    15.279,                   !- Vertex 7 Xcoordinate
    3.969,                    !- Vertex 7 Ycoordinate
    0,                        !- Vertex 7 Zcoordinate
    15.38,                    !- Vertex 8 Xcoordinate
    3.879,                    !- Vertex 8 Ycoordinate
    0,                        !- Vertex 8 Zcoordinate
    15.388,                   !- Vertex 9 Xcoordinate
    3.56,                     !- Vertex 9 Ycoordinate
    0,                        !- Vertex 9 Zcoordinate
    15.367,                   !- Vertex 10 Xcoordinate
    3.24,                     !- Vertex 10 Ycoordinate
    0,                        !- Vertex 10 Zcoordinate
    15.32,                    !- Vertex 11 Xcoordinate
    2.924,                    !- Vertex 11 Ycoordinate
    0,                        !- Vertex 11 Zcoordinate
    15.29,                    !- Vertex 12 Xcoordinate
    2.802,                    !- Vertex 12 Ycoordinate
    0,                        !- Vertex 12 Zcoordinate
    14.849,                   !- Vertex 13 Xcoordinate
    2.373,                    !- Vertex 13 Ycoordinate
    0,                        !- Vertex 13 Zcoordinate
    14.633,                   !- Vertex 14 Xcoordinate
    1.414,                    !- Vertex 14 Ycoordinate
    0,                        !- Vertex 14 Zcoordinate
    14.481,                   !- Vertex 15 Xcoordinate
    1.224,                    !- Vertex 15 Ycoordinate
    0,                        !- Vertex 15 Zcoordinate
    14.26,                    !- Vertex 16 Xcoordinate
    0.994,                    !- Vertex 16 Ycoordinate
    0,                        !- Vertex 16 Zcoordinate
    14.018,                   !- Vertex 17 Xcoordinate
    0.785,                    !- Vertex 17 Ycoordinate
    0,                        !- Vertex 17 Zcoordinate
    13.76,                    !- Vertex 18 Xcoordinate
    0.597,                    !- Vertex 18 Ycoordinate
    0,                        !- Vertex 18 Zcoordinate
    13.486,                   !- Vertex 19 Xcoordinate
    0.432,                    !- Vertex 19 Ycoordinate
    0,                        !- Vertex 19 Zcoordinate
    13.198,                   !- Vertex 20 Xcoordinate
    0.292,                    !- Vertex 20 Ycoordinate
    0,                        !- Vertex 20 Zcoordinate
    12.9,                     !- Vertex 21 Xcoordinate
    0.179,                    !- Vertex 21 Ycoordinate
    0,                        !- Vertex 21 Zcoordinate
    12.591,                   !- Vertex 22 Xcoordinate
    0.091,                    !- Vertex 22 Ycoordinate
    0,                        !- Vertex 22 Zcoordinate
    12.278,                   !- Vertex 23 Xcoordinate
    0.031,                    !- Vertex 23 Ycoordinate
    0,                        !- Vertex 23 Zcoordinate
    11.96,                    !- Vertex 24 Xcoordinate
    0,                        !- Vertex 24 Ycoordinate
    0,                        !- Vertex 24 Zcoordinate
    6.419,                    !- Vertex 25 Xcoordinate
    4.84,                     !- Vertex 25 Ycoordinate
    0,                        !- Vertex 25 Zcoordinate
    6.096,                    !- Vertex 26 Xcoordinate
    4.828,                    !- Vertex 26 Ycoordinate
    0,                        !- Vertex 26 Zcoordinate
    5.775,                    !- Vertex 27 Xcoordinate
    4.844,                    !- Vertex 27 Ycoordinate
    0,                        !- Vertex 27 Zcoordinate
    5.455,                    !- Vertex 28 Xcoordinate
    4.89,                     !- Vertex 28 Ycoordinate
    0,                        !- Vertex 28 Zcoordinate
    5.14,                     !- Vertex 29 Xcoordinate
    4.962,                    !- Vertex 29 Ycoordinate
    0,                        !- Vertex 29 Zcoordinate
    4.833,                    !- Vertex 30 Xcoordinate
    5.063,                    !- Vertex 30 Ycoordinate
    0,                        !- Vertex 30 Zcoordinate
    4.536,                    !- Vertex 31 Xcoordinate
    5.189,                    !- Vertex 31 Ycoordinate
    0,                        !- Vertex 31 Zcoordinate
    4.252,                    !- Vertex 32 Xcoordinate
    5.342,                    !- Vertex 32 Ycoordinate
    0,                        !- Vertex 32 Zcoordinate
    3.981,                    !- Vertex 33 Xcoordinate
    5.518,                    !- Vertex 33 Ycoordinate
    0,                        !- Vertex 33 Zcoordinate
    3.729,                    !- Vertex 34 Xcoordinate
    5.719,                    !- Vertex 34 Ycoordinate
    0,                        !- Vertex 34 Zcoordinate
    3.494,                    !- Vertex 35 Xcoordinate
    5.939,                    !- Vertex 35 Ycoordinate
    0,                        !- Vertex 35 Zcoordinate
    3.278,                    !- Vertex 36 Xcoordinate
    6.181,                    !- Vertex 36 Ycoordinate
    0,                        !- Vertex 36 Zcoordinate
    3.086,                    !- Vertex 37 Xcoordinate
    6.439,                    !- Vertex 37 Ycoordinate
    0,                        !- Vertex 37 Zcoordinate
    2.916,                    !- Vertex 38 Xcoordinate
    6.715,                    !- Vertex 38 Ycoordinate
    0,                        !- Vertex 38 Zcoordinate
    2.771,                    !- Vertex 39 Xcoordinate
    7.003,                    !- Vertex 39 Ycoordinate
    0,                        !- Vertex 39 Zcoordinate
    2.653,                    !- Vertex 40 Xcoordinate
    7.303,                    !- Vertex 40 Ycoordinate
    0,                        !- Vertex 40 Zcoordinate
    2.56,                     !- Vertex 41 Xcoordinate
    7.612,                    !- Vertex 41 Ycoordinate
    0,                        !- Vertex 41 Zcoordinate
    2.497,                    !- Vertex 42 Xcoordinate
    7.928,                    !- Vertex 42 Ycoordinate
    0,                        !- Vertex 42 Zcoordinate
    2.46,                     !- Vertex 43 Xcoordinate
    8.25,                     !- Vertex 43 Ycoordinate
    0,                        !- Vertex 43 Zcoordinate
    0,                        !- Vertex 44 Xcoordinate
    10.469,                   !- Vertex 44 Ycoordinate
    0,                        !- Vertex 44 Zcoordinate
    3.44,                     !- Vertex 45 Xcoordinate
    14.289,                   !- Vertex 45 Ycoordinate
    0,                        !- Vertex 45 Zcoordinate
    5.19,                     !- Vertex 46 Xcoordinate
    12.719,                   !- Vertex 46 Ycoordinate
    0,                        !- Vertex 46 Zcoordinate
    5.46,                     !- Vertex 47 Xcoordinate
    13.01,                    !- Vertex 47 Ycoordinate
    0,                        !- Vertex 47 Zcoordinate
    5.71,                     !- Vertex 48 Xcoordinate
    12.789,                   !- Vertex 48 Ycoordinate
    0,                        !- Vertex 48 Zcoordinate
    9.7,                      !- Vertex 49 Xcoordinate
    17.209,                   !- Vertex 49 Ycoordinate
    0,                        !- Vertex 49 Zcoordinate
    11.15,                    !- Vertex 50 Xcoordinate
    15.91,                    !- Vertex 50 Ycoordinate
    0,                        !- Vertex 50 Zcoordinate
    12.445,                   !- Vertex 51 Xcoordinate
    17.345,                   !- Vertex 51 Ycoordinate
    0,                        !- Vertex 51 Zcoordinate
    12.709,                   !- Vertex 52 Xcoordinate
    17.11,                    !- Vertex 52 Ycoordinate
    0,                        !- Vertex 52 Zcoordinate
    12.923,                   !- Vertex 53 Xcoordinate
    17.292,                   !- Vertex 53 Ycoordinate
    0;                        !- Vertex 53 Zcoordinate

BUILDINGSURFACE:DETAILED,
    F_1,                      !- Name
    Wall,                     !- Surface Type
    C_F,                      !- Construction Name
    Zone_0599100000678117,    !- Zone Name
    ,                         !- Space Name
    Outdoors,                 !- Outside Boundary Condition
    ,                         !- Outside Boundary Condition Object
    SunExposed,               !- Sun Exposure
    WindExposed,              !- Wind Exposure
    0.5,                      !- View Factor to Ground
    4,                        !- Number of Vertices
    2.56,                     !- Vertex 1 Xcoordinate
    7.612,                    !- Vertex 1 Ycoordinate
    12.388,                   !- Vertex 1 Zcoordinate
    2.56,                     !- Vertex 2 Xcoordinate
    7.612,                    !- Vertex 2 Ycoordinate
    0,                        !- Vertex 2 Zcoordinate
    2.653,                    !- Vertex 3 Xcoordinate
    7.303,                    !- Vertex 3 Ycoordinate
    0,                        !- Vertex 3 Zcoordinate
    2.653,                    !- Vertex 4 Xcoordinate
    7.303,                    !- Vertex 4 Ycoordinate
    12.388;                   !- Vertex 4 Zcoordinate

BUILDINGSURFACE:DETAILED,
    F_2,                      !- Name
    Wall,                     !- Surface Type
    C_F,                      !- Construction Name
    Zone_0599100000678117,    !- Zone Name
    ,                         !- Space Name
    Outdoors,                 !- Outside Boundary Condition
    ,                         !- Outside Boundary Condition Object
    SunExposed,               !- Sun Exposure
    WindExposed,              !- Wind Exposure
    0.5,                      !- View Factor to Ground
    4,                        !- Number of Vertices
    2.497,                    !- Vertex 1 Xcoordinate
    7.928,                    !- Vertex 1 Ycoordinate
    12.388,                   !- Vertex 1 Zcoordinate
    2.497,                    !- Vertex 2 Xcoordinate
    7.928,                    !- Vertex 2 Ycoordinate
    0,                        !- Vertex 2 Zcoordinate
    2.56,                     !- Vertex 3 Xcoordinate
    7.612,                    !- Vertex 3 Ycoordinate
    0,                        !- Vertex 3 Zcoordinate
    2.56,                     !- Vertex 4 Xcoordinate
    7.612,                    !- Vertex 4 Ycoordinate
    12.388;                   !- Vertex 4 Zcoordinate

BUILDINGSURFACE:DETAILED,
    F_3,                      !- Name
    Wall,                     !- Surface Type
    C_F,                      !- Construction Name
    Zone_0599100000678117,    !- Zone Name
    ,                         !- Space Name
    Outdoors,                 !- Outside Boundary Condition
    ,                         !- Outside Boundary Condition Object
    SunExposed,               !- Sun Exposure
    WindExposed,              !- Wind Exposure
    0.5,                      !- View Factor to Ground
    4,                        !- Number of Vertices
    0,                        !- Vertex 1 Xcoordinate
    10.469,                   !- Vertex 1 Ycoordinate
    12.388,                   !- Vertex 1 Zcoordinate
    0,                        !- Vertex 2 Xcoordinate
    10.469,                   !- Vertex 2 Ycoordinate
    0,                        !- Vertex 2 Zcoordinate
    2.46,                     !- Vertex 3 Xcoordinate
    8.25,                     !- Vertex 3 Ycoordinate
    0,                        !- Vertex 3 Zcoordinate
    2.46,                     !- Vertex 4 Xcoordinate
    8.25,                     !- Vertex 4 Ycoordinate
    12.388;                   !- Vertex 4 Zcoordinate

BUILDINGSURFACE:DETAILED,
    F_4,                      !- Name
    Wall,                     !- Surface Type
    C_F,                      !- Construction Name
    Zone_0599100000678117,    !- Zone Name
    ,                         !- Space Name
    Outdoors,                 !- Outside Boundary Condition
    ,                         !- Outside Boundary Condition Object
    SunExposed,               !- Sun Exposure
    WindExposed,              !- Wind Exposure
    0.5,                      !- View Factor to Ground
    4,                        !- Number of Vertices
    2.46,                     !- Vertex 1 Xcoordinate
    8.25,                     !- Vertex 1 Ycoordinate
    12.388,                   !- Vertex 1 Zcoordinate
    2.46,                     !- Vertex 2 Xcoordinate
    8.25,                     !- Vertex 2 Ycoordinate
    0,                        !- Vertex 2 Zcoordinate
    2.497,                    !- Vertex 3 Xcoordinate
    7.928,                    !- Vertex 3 Ycoordinate
    0,                        !- Vertex 3 Zcoordinate
    2.497,                    !- Vertex 4 Xcoordinate
    7.928,                    !- Vertex 4 Ycoordinate
    12.388;                   !- Vertex 4 Zcoordinate

BUILDINGSURFACE:DETAILED,
    F_5,                      !- Name
    Wall,                     !- Surface Type
    C_F,                      !- Construction Name
    Zone_0599100000678117,    !- Zone Name
    ,                         !- Space Name
    Outdoors,                 !- Outside Boundary Condition
    ,                         !- Outside Boundary Condition Object
    SunExposed,               !- Sun Exposure
    WindExposed,              !- Wind Exposure
    0.5,                      !- View Factor to Ground
    4,                        !- Number of Vertices
    2.653,                    !- Vertex 1 Xcoordinate
    7.303,                    !- Vertex 1 Ycoordinate
    12.388,                   !- Vertex 1 Zcoordinate
    2.653,                    !- Vertex 2 Xcoordinate
    7.303,                    !- Vertex 2 Ycoordinate
    0,                        !- Vertex 2 Zcoordinate
    2.771,                    !- Vertex 3 Xcoordinate
    7.003,                    !- Vertex 3 Ycoordinate
    0,                        !- Vertex 3 Zcoordinate
    2.771,                    !- Vertex 4 Xcoordinate
    7.003,                    !- Vertex 4 Ycoordinate
    12.388;                   !- Vertex 4 Zcoordinate

BUILDINGSURFACE:DETAILED,
    F_6,                      !- Name
    Wall,                     !- Surface Type
    C_F,                      !- Construction Name
    Zone_0599100000678117,    !- Zone Name
    ,                         !- Space Name
    Outdoors,                 !- Outside Boundary Condition
    ,                         !- Outside Boundary Condition Object
    SunExposed,               !- Sun Exposure
    WindExposed,              !- Wind Exposure
    0.5,                      !- View Factor to Ground
    4,                        !- Number of Vertices
    2.771,                    !- Vertex 1 Xcoordinate
    7.003,                    !- Vertex 1 Ycoordinate
    12.388,                   !- Vertex 1 Zcoordinate
    2.771,                    !- Vertex 2 Xcoordinate
    7.003,                    !- Vertex 2 Ycoordinate
    0,                        !- Vertex 2 Zcoordinate
    2.916,                    !- Vertex 3 Xcoordinate
    6.715,                    !- Vertex 3 Ycoordinate
    0,                        !- Vertex 3 Zcoordinate
    2.916,                    !- Vertex 4 Xcoordinate
    6.715,                    !- Vertex 4 Ycoordinate
    12.388;                   !- Vertex 4 Zcoordinate

BUILDINGSURFACE:DETAILED,
    F_7,                      !- Name
    Wall,                     !- Surface Type
    C_F,                      !- Construction Name
    Zone_0599100000678117,    !- Zone Name
    ,                         !- Space Name
    Outdoors,                 !- Outside Boundary Condition
    ,                         !- Outside Boundary Condition Object
    SunExposed,               !- Sun Exposure
    WindExposed,              !- Wind Exposure
    0.5,                      !- View Factor to Ground
    4,                        !- Number of Vertices
    3.278,                    !- Vertex 1 Xcoordinate
    6.181,                    !- Vertex 1 Ycoordinate
    12.388,                   !- Vertex 1 Zcoordinate
    3.278,                    !- Vertex 2 Xcoordinate
    6.181,                    !- Vertex 2 Ycoordinate
    0,                        !- Vertex 2 Zcoordinate
    3.494,                    !- Vertex 3 Xcoordinate
    5.939,                    !- Vertex 3 Ycoordinate
    0,                        !- Vertex 3 Zcoordinate
    3.494,                    !- Vertex 4 Xcoordinate
    5.939,                    !- Vertex 4 Ycoordinate
    12.388;                   !- Vertex 4 Zcoordinate

BUILDINGSURFACE:DETAILED,
    F_8,                      !- Name
    Wall,                     !- Surface Type
    C_F,                      !- Construction Name
    Zone_0599100000678117,    !- Zone Name
    ,                         !- Space Name
    Outdoors,                 !- Outside Boundary Condition
    ,                         !- Outside Boundary Condition Object
    SunExposed,               !- Sun Exposure
    WindExposed,              !- Wind Exposure
    0.5,                      !- View Factor to Ground
    4,                        !- Number of Vertices
    2.916,                    !- Vertex 1 Xcoordinate
    6.715,                    !- Vertex 1 Ycoordinate
    12.388,                   !- Vertex 1 Zcoordinate
    2.916,                    !- Vertex 2 Xcoordinate
    6.715,                    !- Vertex 2 Ycoordinate
    0,                        !- Vertex 2 Zcoordinate
    3.086,                    !- Vertex 3 Xcoordinate
    6.439,                    !- Vertex 3 Ycoordinate
    0,                        !- Vertex 3 Zcoordinate
    3.086,                    !- Vertex 4 Xcoordinate
    6.439,                    !- Vertex 4 Ycoordinate
    12.388;                   !- Vertex 4 Zcoordinate

BUILDINGSURFACE:DETAILED,
    F_9,                      !- Name
    Wall,                     !- Surface Type
    C_F,                      !- Construction Name
    Zone_0599100000678117,    !- Zone Name
    ,                         !- Space Name
    Outdoors,                 !- Outside Boundary Condition
    ,                         !- Outside Boundary Condition Object
    SunExposed,               !- Sun Exposure
    WindExposed,              !- Wind Exposure
    0.5,                      !- View Factor to Ground
    4,                        !- Number of Vertices
    3.086,                    !- Vertex 1 Xcoordinate
    6.439,                    !- Vertex 1 Ycoordinate
    12.388,                   !- Vertex 1 Zcoordinate
    3.086,                    !- Vertex 2 Xcoordinate
    6.439,                    !- Vertex 2 Ycoordinate
    0,                        !- Vertex 2 Zcoordinate
    3.278,                    !- Vertex 3 Xcoordinate
    6.181,                    !- Vertex 3 Ycoordinate
    0,                        !- Vertex 3 Zcoordinate
    3.278,                    !- Vertex 4 Xcoordinate
    6.181,                    !- Vertex 4 Ycoordinate
    12.388;                   !- Vertex 4 Zcoordinate

BUILDINGSURFACE:DETAILED,
    F_10,                     !- Name
    Wall,                     !- Surface Type
    C_F,                      !- Construction Name
    Zone_0599100000678117,    !- Zone Name
    ,                         !- Space Name
    Outdoors,                 !- Outside Boundary Condition
    ,                         !- Outside Boundary Condition Object
    SunExposed,               !- Sun Exposure
    WindExposed,              !- Wind Exposure
    0.5,                      !- View Factor to Ground
    4,                        !- Number of Vertices
    3.494,                    !- Vertex 1 Xcoordinate
    5.939,                    !- Vertex 1 Ycoordinate
    12.388,                   !- Vertex 1 Zcoordinate
    3.494,                    !- Vertex 2 Xcoordinate
    5.939,                    !- Vertex 2 Ycoordinate
    0,                        !- Vertex 2 Zcoordinate
    3.729,                    !- Vertex 3 Xcoordinate
    5.719,                    !- Vertex 3 Ycoordinate
    0,                        !- Vertex 3 Zcoordinate
    3.729,                    !- Vertex 4 Xcoordinate
    5.719,                    !- Vertex 4 Ycoordinate
    12.388;                   !- Vertex 4 Zcoordinate

BUILDINGSURFACE:DETAILED,
    F_11,                     !- Name
    Wall,                     !- Surface Type
    C_F,                      !- Construction Name
    Zone_0599100000678117,    !- Zone Name
    ,                         !- Space Name
    Outdoors,                 !- Outside Boundary Condition
    ,                         !- Outside Boundary Condition Object
    SunExposed,               !- Sun Exposure
    WindExposed,              !- Wind Exposure
    0.5,                      !- View Factor to Ground
    4,                        !- Number of Vertices
    3.729,                    !- Vertex 1 Xcoordinate