!- Windows Line endings 

Version,
    24.2;                     !- Version Identifier

SimulationControl,
    No,                       !- Do Zone Sizing Calculation
    No,                       !- Do System Sizing Calculation
    No,                       !- Do Plant Sizing Calculation
    No,                       !- Run Simulation for Sizing Periods
    Yes,                      !- Run Simulation for Weather File Run Periods
    No,                       !- Do HVAC Sizing Simulation for Sizing Periods
    1;                        !- Maximum Number of HVAC Sizing Simulation Passes

BUILDING,
    Pand.0599100000113328,    !- Name
    0,                        !- North Axis
    City,                     !- Terrain
    0.04,                     !- Loads Convergence Tolerance Value
    0.4,                      !- Temperature Convergence Tolerance Value
    FullExterior,             !- Solar Distribution
    25,                       !- Maximum Number of Warmup Days
    1;                        !- Minimum Number of Warmup Days

Timestep,
    6;                        !- Number of Timesteps per Hour

Site:Location,
    Rotterdam.The.Hague.AP_ZH_NLD Design_Conditions,    !- Name
    51.96,                    !- Latitude
    4.45,                     !- Longitude
    1,                        !- Time Zone
    -4.5;                     !- Elevation

RunPeriod,
    Run Period 1,             !- Name
    1,                        !- Begin Month
    1,                        !- Begin Day of Month
    ,                         !- Begin Year
    12,                       !- End Month
    31,                       !- End Day of Month
    ,                         !- End Year
    ,                         !- Day of Week for Start Day
    Yes,                      !- Use Weather File Holidays and Special Days
    Yes,                      !- Use Weather File Daylight Saving Period
    No,                       !- Apply Weekend Holiday Rule
    Yes,                      !- Use Weather File Rain Indicators
    Yes,                      !- Use Weather File Snow Indicators
    No,                       !- Treat Weather as Actual
    Hour24;                   !- First Hour Interpolation Starting Values

RunPeriodControl:DaylightSavingTime,
    Last Sunday in March,     !- Start Date
    Last Sunday in October;    !- End Date

SITE:GROUNDTEMPERATURE:BUILDINGSURFACE,
    18,                       !- January Ground Temperature
    18,                       !- February Ground Temperature
    18,                       !- March Ground Temperature
    18,                       !- April Ground Temperature
    18,                       !- May Ground Temperature
    18,                       !- June Ground Temperature
    18,                       !- July Ground Temperature
    18,                       !- August Ground Temperature
    18,                       !- September Ground Temperature
    18,                       !- October Ground Temperature
    18,                       !- November Ground Temperature
    18;                       !- December Ground Temperature

SCHEDULETYPELIMITS,
    Temperature,              !- Name
    -100,                     !- Lower Limit Value
    100,                      !- Upper Limit Value
    CONTINUOUS,               !- Numeric Type
    Temperature;              !- Unit Type

SCHEDULETYPELIMITS,
    Fraction,                 !- Name
    0,                        !- Lower Limit Value
    1,                        !- Upper Limit Value
    CONTINUOUS,               !- Numeric Type
    Dimensionless;            !- Unit Type

SCHEDULETYPELIMITS,
    Control Type,             !- Name
    0,                        !- Lower Limit Value
    4,                        !- Upper Limit Value
    DISCRETE,                 !- Numeric Type
    Dimensionless;            !- Unit Type

SCHEDULE:COMPACT,
    HeatingSetpoint_Zone_0599100000113328,    !- Name
    Temperature,              !- Schedule Type Limits Name
    Through: 12/31,           !- Field 1
    For: AllDays,             !- Field 2
    Until: 24:00,             !- Field 3
    21.0;                     !- Field 4

SCHEDULE:COMPACT,
    CoolingSetpoint_Zone_0599100000113328,    !- Name
    Temperature,              !- Schedule Type Limits Name
    Through: 12/31,           !- Field 1
    For: AllDays,             !- Field 2
    Until: 24:00,             !- Field 3
    24.0;                     !- Field 4

SCHEDULE:COMPACT,
    DualSetpointControlType,    !- Name
    Control Type,             !- Schedule Type Limits Name
    Through: 12/31,           !- Field 1
    For: AllDays,             !- Field 2
    Until: 24:00,             !- Field 3
    4;                        !- Field 4

SCHEDULE:COMPACT,
    AlwaysOn,                 !- Name
    Fraction,                 !- Schedule Type Limits Name
    Through: 12/31,           !- Field 1
    For: AllDays,             !- Field 2
    Until: 24:00,             !- Field 3
    1.0;                      !- Field 4

MATERIAL,
    G.D.1975-1991,            !- Name
    MediumSmooth,             !- Roughness
    0.15,                     !- Thickness
    2.884615e-01,             !- Conductivity
    540,                      !- Density
    1210,                     !- Specific Heat
    0.9,                      !- Thermal Absorptance
    0.7,                      !- Solar Absorptance
    0.7;                      !- Visible Absorptance

MATERIAL,
    F.D.1975-1991,            !- Name
    Rough,                    !- Roughness
    0.3,                      !- Thickness
    2.307692e-01,             !- Conductivity
    1920,                     !- Density
    840,                      !- Specific Heat
    0.9,                      !- Thermal Absorptance
    0.7,                      !- Solar Absorptance
    0.7;                      !- Visible Absorptance

MATERIAL,
    R.D.1975-1991,            !- Name
    MediumRough,              !- Roughness
    0.2,                      !- Thickness
    1.538462e-01,             !- Conductivity
    1500,                     !- Density
    1000,                     !- Specific Heat
    0.9,                      !- Thermal Absorptance
    0.7,                      !- Solar Absorptance
    0.7;                      !- Visible Absorptance

WINDOWMATERIAL:SIMPLEGLAZINGSYSTEM,
    W.D.1975-1991,            !- Name
    2.9,                      !- UFactor
    0.6,                      !- Solar Heat Gain Coefficient
    0.6;                      !- Visible Transmittance

CONSTRUCTION,
    C_G,                      !- Name
    G.D.1975-1991;            !- Outside Layer

CONSTRUCTION,
    C_F,                      !- Name
    F.D.1975-1991;            !- Outside Layer

CONSTRUCTION,
    C_R,                      !- Name
    R.D.1975-1991;            !- Outside Layer

GlobalGeometryRules,
    UpperLeftCorner,          !- Starting Vertex Position
    Counterclockwise,         !- Vertex Entry Direction
    World,                    !- Coordinate System
    World,                    !- Daylighting Reference Point Coordinate System
    Relative;                 !- Rectangular Surface Coordinate System

ZONE,
    Zone_0599100000113328,    !- Name
    0,                        !- Direction of Relative North
    0,                        !- X Origin
    0,                        !- Y Origin
    0,                        !- Z Origin
    1,                        !- Type
    1,                        !- Multiplier
    Autocalculate,            !- Ceiling Height
    Autocalculate,            !- Volume
    autocalculate,            !- Floor Area
    ,                         !- Zone Inside Convection Algorithm
    ,                         !- Zone Outside Convection Algorithm
    Yes;                      !- Part of Total Floor Area

BUILDINGSURFACE:DETAILED,
    G_0,                      !- Name
    Floor,                    !- Surface Type
    C_G,                      !- Construction Name
    Zone_0599100000113328,    !- Zone Name
    ,                         !- Space Name
    Ground,                   !- Outside Boundary Condition
    ,                         !- Outside Boundary Condition Object
    SunExposed,               !- Sun Exposure
    WindExposed,              !- Wind Exposure
    0.5,                      !- View Factor to Ground
    57,                       !- Number of Vertices
    3.229,                    !- Vertex 1 Xcoordinate
    0,                        !- Vertex 1 Ycoordinate
    0,                        !- Vertex 1 Zcoordinate
    0,                        !- Vertex 2 Xcoordinate
    1.351,                    !- Vertex 2 Ycoordinate
    0,                        !- Vertex 2 Zcoordinate
    2.71,                     !- Vertex 3 Xcoordinate
    7.801,                    !- Vertex 3 Ycoordinate
    0,                        !- Vertex 3 Zcoordinate
    1.32,                     !- Vertex 4 Xcoordinate
    8.38,                     !- Vertex 4 Ycoordinate
    0,                        !- Vertex 4 Zcoordinate
    3.773,                    !- Vertex 5 Xcoordinate
    14.218,                   !- Vertex 5 Ycoordinate
    0,                        !- Vertex 5 Zcoordinate
    3.948,                    !- Vertex 6 Xcoordinate
    14.154,                   !- Vertex 6 Ycoordinate
    0,                        !- Vertex 6 Zcoordinate
    4.276,                    !- Vertex 7 Xcoordinate
    14.927,                   !- Vertex 7 Ycoordinate
    0,                        !- Vertex 7 Zcoordinate
    4.102,                    !- Vertex 8 Xcoordinate
    15.001,                   !- Vertex 8 Ycoordinate
    0,                        !- Vertex 8 Zcoordinate
    5.299,                    !- Vertex 9 Xcoordinate
    17.851,                   !- Vertex 9 Ycoordinate
    0,                        !- Vertex 9 Zcoordinate
    4.279,                    !- Vertex 10 Xcoordinate
    18.25,                    !- Vertex 10 Ycoordinate
    0,                        !- Vertex 10 Zcoordinate
    4.218,                    !- Vertex 11 Xcoordinate
    18.132,                   !- Vertex 11 Ycoordinate
    0,                        !- Vertex 11 Zcoordinate
    4.137,                    !- Vertex 12 Xcoordinate
    18.028,                   !- Vertex 12 Ycoordinate
    0,                        !- Vertex 12 Zcoordinate
    4.038,                    !- Vertex 13 Xcoordinate
    17.939,                   !- Vertex 13 Ycoordinate
    0,                        !- Vertex 13 Zcoordinate
    3.924,                    !- Vertex 14 Xcoordinate
    17.867,                   !- Vertex 14 Ycoordinate
    0,                        !- Vertex 14 Zcoordinate
    3.801,                    !- Vertex 15 Xcoordinate
    17.819,                   !- Vertex 15 Ycoordinate
    0,                        !- Vertex 15 Zcoordinate
    3.67,                     !- Vertex 16 Xcoordinate
    17.791,                   !- Vertex 16 Ycoordinate
    0,                        !- Vertex 16 Zcoordinate
    3.538,                    !- Vertex 17 Xcoordinate
    17.788,                   !- Vertex 17 Ycoordinate
    0,                        !- Vertex 17 Zcoordinate
    3.405,                    !- Vertex 18 Xcoordinate
    17.807,                   !- Vertex 18 Ycoordinate
    0,                        !- Vertex 18 Zcoordinate
    3.279,                    !- Vertex 19 Xcoordinate
    17.851,                   !- Vertex 19 Ycoordinate
    0,                        !- Vertex 19 Zcoordinate
    3.166,                    !- Vertex 20 Xcoordinate
    17.913,                   !- Vertex 20 Ycoordinate
    0,                        !- Vertex 20 Zcoordinate
    3.065,                    !- Vertex 21 Xcoordinate
    17.994,                   !- Vertex 21 Ycoordinate
    0,                        !- Vertex 21 Zcoordinate
    2.978,                    !- Vertex 22 Xcoordinate
    18.091,                   !- Vertex 22 Ycoordinate
    0,                        !- Vertex 22 Zcoordinate
    2.91,                     !- Vertex 23 Xcoordinate
    18.202,                   !- Vertex 23 Ycoordinate
    0,                        !- Vertex 23 Zcoordinate
    2.863,                    !- Vertex 24 Xcoordinate
    18.322,                   !- Vertex 24 Ycoordinate
    0,                        !- Vertex 24 Zcoordinate
    2.836,                    !- Vertex 25 Xcoordinate
    18.448,                   !- Vertex 25 Ycoordinate
    0,                        !- Vertex 25 Zcoordinate
    2.832,                    !- Vertex 26 Xcoordinate
    18.578,                   !- Vertex 26 Ycoordinate
    0,                        !- Vertex 26 Zcoordinate
    2.849,                    !- Vertex 27 Xcoordinate
    18.707,                   !- Vertex 27 Ycoordinate
    0,                        !- Vertex 27 Zcoordinate
    2.89,                     !- Vertex 28 Xcoordinate
    18.83,                    !- Vertex 28 Ycoordinate
    0,                        !- Vertex 28 Zcoordinate
    4.949,                    !- Vertex 29 Xcoordinate
    23.741,                   !- Vertex 29 Ycoordinate
    0,                        !- Vertex 29 Zcoordinate
    10.4,                     !- Vertex 30 Xcoordinate
    21.45,                    !- Vertex 30 Ycoordinate
    0,                        !- Vertex 30 Zcoordinate
    9.36,                     !- Vertex 31 Xcoordinate
    18.95,                    !- Vertex 31 Ycoordinate
    0,                        !- Vertex 31 Zcoordinate
    16.4,                     !- Vertex 32 Xcoordinate
    16.02,                    !- Vertex 32 Ycoordinate
    0,                        !- Vertex 32 Zcoordinate
    20.32,                    !- Vertex 33 Xcoordinate
    14.281,                   !- Vertex 33 Ycoordinate
    0,                        !- Vertex 33 Zcoordinate
    20.18,                    !- Vertex 34 Xcoordinate
    14.01,                    !- Vertex 34 Ycoordinate
    0,                        !- Vertex 34 Zcoordinate
    21.93,                    !- Vertex 35 Xcoordinate
    13.32,                    !- Vertex 35 Ycoordinate
    0,                        !- Vertex 35 Zcoordinate
    22.805,                   !- Vertex 36 Xcoordinate
    13.236,                   !- Vertex 36 Ycoordinate
    0,                        !- Vertex 36 Zcoordinate
    20.909,                   !- Vertex 37 Xcoordinate
    8.033,                    !- Vertex 37 Ycoordinate
    0,                        !- Vertex 37 Zcoordinate
    20.747,                   !- Vertex 38 Xcoordinate
    7.553,                    !- Vertex 38 Ycoordinate
    0,                        !- Vertex 38 Zcoordinate
    20.58,                    !- Vertex 39 Xcoordinate
    7.091,                    !- Vertex 39 Ycoordinate
    0,                        !- Vertex 39 Zcoordinate
    14.169,                   !- Vertex 40 Xcoordinate
    9.83,                     !- Vertex 40 Ycoordinate
    0,                        !- Vertex 40 Zcoordinate
    13.419,                   !- Vertex 41 Xcoordinate
    8.25,                     !- Vertex 41 Ycoordinate
    0,                        !- Vertex 41 Zcoordinate
    12.69,                    !- Vertex 42 Xcoordinate
    7.661,                    !- Vertex 42 Ycoordinate
    0,                        !- Vertex 42 Zcoordinate
    11.739,                   !- Vertex 43 Xcoordinate
    7.56,                     !- Vertex 43 Ycoordinate
    0,                        !- Vertex 43 Zcoordinate
    10.629,                   !- Vertex 44 Xcoordinate
    7.921,                    !- Vertex 44 Ycoordinate
    0,                        !- Vertex 44 Zcoordinate
    10.22,                    !- Vertex 45 Xcoordinate
    8.181,                    !- Vertex 45 Ycoordinate
    0,                        !- Vertex 45 Zcoordinate
    9.619,                    !- Vertex 46 Xcoordinate
    8.971,                    !- Vertex 46 Ycoordinate
    0,                        !- Vertex 46 Zcoordinate
    9.5,                      !- Vertex 47 Xcoordinate
    9.911,                    !- Vertex 47 Ycoordinate
    0,                        !- Vertex 47 Zcoordinate
    10.089,                   !- Vertex 48 Xcoordinate
    11.541,                   !- Vertex 48 Ycoordinate
    0,                        !- Vertex 48 Zcoordinate
    6.809,                    !- Vertex 49 Xcoordinate
    12.911,                   !- Vertex 49 Ycoordinate
    0,                        !- Vertex 49 Zcoordinate
    4.479,                    !- Vertex 50 Xcoordinate
    7.341,                    !- Vertex 50 Ycoordinate
    0,                        !- Vertex 50 Zcoordinate
    5.4,                      !- Vertex 51 Xcoordinate
    6.96,                     !- Vertex 51 Ycoordinate
    0,                        !- Vertex 51 Zcoordinate
    5.508,                    !- Vertex 52 Xcoordinate
    6.905,                    !- Vertex 52 Ycoordinate
    0,                        !- Vertex 52 Zcoordinate
    5.607,                    !- Vertex 53 Xcoordinate
    6.83,                     !- Vertex 53 Ycoordinate
    0,                        !- Vertex 53 Zcoordinate
    5.724,                    !- Vertex 54 Xcoordinate
    6.689,                    !- Vertex 54 Ycoordinate
    0,                        !- Vertex 54 Zcoordinate
    5.801,                    !- Vertex 55 Xcoordinate
    6.521,                    !- Vertex 55 Ycoordinate
    0,                        !- Vertex 55 Zcoordinate
    5.83,                     !- Vertex 56 Xcoordinate
    6.34,                     !- Vertex 56 Ycoordinate
    0,                        !- Vertex 56 Zcoordinate
    5.809,                    !- Vertex 57 Xcoordinate
    6.156,                    !- Vertex 57 Ycoordinate
    0;                        !- Vertex 57 Zcoordinate

BUILDINGSURFACE:DETAILED,
    F_1,                      !- Name
    Wall,                     !- Surface Type
    C_F,                      !- Construction Name
    Zone_0599100000113328,    !- Zone Name
    ,                         !- Space Name
    Outdoors,                 !- Outside Boundary Condition
    ,                         !- Outside Boundary Condition Object
    SunExposed,               !- Sun Exposure
    WindExposed,              !- Wind Exposure
    0.5,                      !- View Factor to Ground
    4,                        !- Number of Vertices
    2.89,                     !- Vertex 1 Xcoordinate
    18.83,                    !- Vertex 1 Ycoordinate
    6.457,                    !- Vertex 1 Zcoordinate
    2.89,                     !- Vertex 2 Xcoordinate
    18.83,                    !- Vertex 2 Ycoordinate
    0,                        !- Vertex 2 Zcoordinate
    2.849,                    !- Vertex 3 Xcoordinate
    18.707,                   !- Vertex 3 Ycoordinate
    0,                        !- Vertex 3 Zcoordinate
    2.849,                    !- Vertex 4 Xcoordinate
    18.707,                   !- Vertex 4 Ycoordinate
    6.457;                    !- Vertex 4 Zcoordinate

BUILDINGSURFACE:DETAILED,
    F_2,                      !- Name
    Wall,                     !- Surface Type
    C_F,                      !- Construction Name
    Zone_0599100000113328,    !- Zone Name
    ,                         !- Space Name
    Outdoors,                 !- Outside Boundary Condition
    ,                         !- Outside Boundary Condition Object
    SunExposed,               !- Sun Exposure
    WindExposed,              !- Wind Exposure
    0.5,                      !- View Factor to Ground
    4,                        !- Number of Vertices
    22.805,                   !- Vertex 1 Xcoordinate
    13.236,                   !- Vertex 1 Ycoordinate
    6.457,                    !- Vertex 1 Zcoordinate
    22.805,                   !- Vertex 2 Xcoordinate
    13.236,                   !- Vertex 2 Ycoordinate
    0,                        !- Vertex 2 Zcoordinate
    21.93,                    !- Vertex 3 Xcoordinate
    13.32,                    !- Vertex 3 Ycoordinate
    0,                        !- Vertex 3 Zcoordinate
    21.93,                    !- Vertex 4 Xcoordinate
    13.32,                    !- Vertex 4 Ycoordinate
    6.457;                    !- Vertex 4 Zcoordinate

BUILDINGSURFACE:DETAILED,
    F_3,                      !- Name
    Wall,                     !- Surface Type
    C_F,                      !- Construction Name
    Zone_0599100000113328,    !- Zone Name
    ,                         !- Space Name
    Outdoors,                 !- Outside Boundary Condition
    ,                         !- Outside Boundary Condition Object
    SunExposed,               !- Sun Exposure
    WindExposed,              !- Wind Exposure
    0.5,                      !- View Factor to Ground
    4,                        !- Number of Vertices
    2.863,                    !- Vertex 1 Xcoordinate
    18.322,                   !- Vertex 1 Ycoordinate
    6.457,                    !- Vertex 1 Zcoordinate
    2.863,                    !- Vertex 2 Xcoordinate
    18.322,                   !- Vertex 2 Ycoordinate
    0,                        !- Vertex 2 Zcoordinate
    2.91,                     !- Vertex 3 Xcoordinate
    18.202,                   !- Vertex 3 Ycoordinate
    0,                        !- Vertex 3 Zcoordinate
    2.91,                     !- Vertex 4 Xcoordinate
    18.202,                   !- Vertex 4 Ycoordinate
    6.457;                    !- Vertex 4 Zcoordinate

BUILDINGSURFACE:DETAILED,
    F_4,                      !- Name
    Wall,                     !- Surface Type
    C_F,                      !- Construction Name
    Zone_0599100000113328,    !- Zone Name
    ,                         !- Space Name
    Outdoors,                 !- Outside Boundary Condition
    ,                         !- Outside Boundary Condition Object
    SunExposed,               !- Sun Exposure
    WindExposed,              !- Wind Exposure
    0.5,                      !- View Factor to Ground
    4,                        !- Number of Vertices
    2.91,                     !- Vertex 1 Xcoordinate
    18.202,                   !- Vertex 1 Ycoordinate
    6.457,                    !- Vertex 1 Zcoordinate
    2.91,                     !- Vertex 2 Xcoordinate
    18.202,                   !- Vertex 2 Ycoordinate
    0,                        !- Vertex 2 Zcoordinate
    2.978,                    !- Vertex 3 Xcoordinate
    18.091,                   !- Vertex 3 Ycoordinate
    0,                        !- Vertex 3 Zcoordinate
    2.978,                    !- Vertex 4 Xcoordinate
    18.091,                   !- Vertex 4 Ycoordinate
    6.457;                    !- Vertex 4 Zcoordinate

BUILDINGSURFACE:DETAILED,
    F_5,                      !- Name
    Wall,                     !- Surface Type
    C_F,                      !- Construction Name
    Zone_0599100000113328,    !- Zone Name
    ,                         !- Space Name
    Outdoors,                 !- Outside Boundary Condition
    ,                         !- Outside Boundary Condition Object
    SunExposed,               !- Sun Exposure
    WindExposed,              !- Wind Exposure
    0.5,                      !- View Factor to Ground
    4,                        !- Number of Vertices
    20.18,                    !- Vertex 1 Xcoordinate
    14.01,                    !- Vertex 1 Ycoordinate
    6.457,                    !- Vertex 1 Zcoordinate
    20.18,                    !- Vertex 2 Xcoordinate
    14.01,                    !- Vertex 2 Ycoordinate
    0,                        !- Vertex 2 Zcoordinate
    20.32,                    !- Vertex 3 Xcoordinate
    14.281,                   !- Vertex 3 Ycoordinate
    0,                        !- Vertex 3 Zcoordinate
    20.32,                    !- Vertex 4 Xcoordinate
    14.281,                   !- Vertex 4 Ycoordinate
    6.457;                    !- Vertex 4 Zcoordinate

BUILDINGSURFACE:DETAILED,
    F_6,                      !- Name
    Wall,                     !- Surface Type
    C_F,                      !- Construction Name
    Zone_0599100000113328,    !- Zone Name
    ,                         !- Space Name
    Outdoors,                 !- Outside Boundary Condition
    ,                         !- Outside Boundary Condition Object
    SunExposed,               !- Sun Exposure
    WindExposed,              !- Wind Exposure
    0.5,                      !- View Factor to Ground
    4,                        !- Number of Vertices
    21.93,                    !- Vertex 1 Xcoordinate
    13.32,                    !- Vertex 1 Ycoordinate
    6.457,                    !- Vertex 1 Zcoordinate
    21.93,                    !- Vertex 2 Xcoordinate
    13.32,                    !- Vertex 2 Ycoordinate
    0,                        !- Vertex 2 Zcoordinate
    20.18,                    !- Vertex 3 Xcoordinate
    14.01,                    !- Vertex 3 Ycoordinate
    0,                        !- Vertex 3 Zcoordinate
    20.18,                    !- Vertex 4 Xcoordinate
    14.01,                    !- Vertex 4 Ycoordinate
    6.457;                    !- Vertex 4 Zcoordinate

BUILDINGSURFACE:DETAILED,
    F_7,                      !- Name
    Wall,                     !- Surface Type
    C_F,                      !- Construction Name
    Zone_0599100000113328,    !- Zone Name
    ,                         !- Space Name
    Outdoors,                 !- Outside Boundary Condition
    ,                         !- Outside Boundary Condition Object
    SunExposed,               !- Sun Exposure
    WindExposed,              !- Wind Exposure
    0.5,                      !- View Factor to Ground
    4,                        !- Number of Vertices
    20.32,                    !- Vertex 1 Xcoordinate
    14.281,                   !- Vertex 1 Ycoordinate
    6.457,                    !- Vertex 1 Zcoordinate
    20.32,                    !- Vertex 2 Xcoordinate
    14.281,                   !- Vertex 2 Ycoordinate
    0,                        !- Vertex 2 Zcoordinate
    16.4,                     !- Vertex 3 Xcoordinate
    16.02,                    !- Vertex 3 Ycoordinate
    0,                        !- Vertex 3 Zcoordinate
    16.4,                     !- Vertex 4 Xcoordinate
    16.02,                    !- Vertex 4 Ycoordinate
    6.457;                    !- Vertex 4 Zcoordinate

BUILDINGSURFACE:DETAILED,
    F_8,                      !- Name
    Wall,                     !- Surface Type
    C_F,                      !- Construction Name
    Zone_0599100000113328,    !- Zone Name
    ,                         !- Space Name
    Outdoors,                 !- Outside Boundary Condition
    ,                         !- Outside Boundary Condition Object
    SunExposed,               !- Sun Exposure
    WindExposed,              !- Wind Exposure
    0.5,                      !- View Factor to Ground
    4,                        !- Number of Vertices
    2.832,                    !- Vertex 1 Xcoordinate
    18.578,                   !- Vertex 1 Ycoordinate
    6.457,                    !- Vertex 1 Zcoordinate
    2.832,                    !- Vertex 2 Xcoordinate
    18.578,                   !- Vertex 2 Ycoordinate
    0,                        !- Vertex 2 Zcoordinate
    2.836,                    !- Vertex 3 Xcoordinate
    18.448,                   !- Vertex 3 Ycoordinate
    0,                        !- Vertex 3 Zcoordinate
    2.836,                    !- Vertex 4 Xcoordinate
    18.448,                   !- Vertex 4 Ycoordinate
    6.457;                    !- Vertex 4 Zcoordinate

BUILDINGSURFACE:DETAILED,
    F_9,                      !- Name
    Wall,                     !- Surface Type
    C_F,                      !- Construction Name
    Zone_0599100000113328,    !- Zone Name
    ,                         !- Space Name
    Outdoors,                 !- Outside Boundary Condition
    ,                         !- Outside Boundary Condition Object
    SunExposed,               !- Sun Exposure
    WindExposed,              !- Wind Exposure
    0.5,                      !- View Factor to Ground
    4,                        !- Number of Vertices
    2.849,                    !- Vertex 1 Xcoordinate
    18.707,                   !- Vertex 1 Ycoordinate
    6.457,                    !- Vertex 1 Zcoordinate
    2.849,                    !- Vertex 2 Xcoordinate
    18.707,                   !- Vertex 2 Ycoordinate
    0,                        !- Vertex 2 Zcoordinate
    2.832,                    !- Vertex 3 Xcoordinate
    18.578,                   !- Vertex 3 Ycoordinate
    0,                        !- Vertex 3 Zcoordinate
    2.832,                    !- Vertex 4 Xcoordinate
    18.578,                   !- Vertex 4 Ycoordinate
    6.457;                    !- Vertex 4 Zcoordinate

BUILDINGSURFACE:DETAILED,
    F_10,                     !- Name
    Wall,                     !- Surface Type
    C_F,                      !- Construction Name
    Zone_0599100000113328,    !- Zone Name
    ,                         !- Space Name
    Outdoors,                 !- Outside Boundary Condition
    ,                         !- Outside Boundary Condition Object
    SunExposed,               !- Sun Exposure
    WindExposed,              !- Wind Exposure
    0.5,                      !- View Factor to Ground
    4,                        !- Number of Vertices
    9.36,                     !- Vertex 1 Xcoordinate
    18.95,                    !- Vertex 1 Ycoordinate
    6.457,                    !- Vertex 1 Zcoordinate
    9.36,                     !- Vertex 2 Xcoordinate
    18.95,                    !- Vertex 2 Ycoordinate
    0,                        !- Vertex 2 Zcoordinate
    10.4,                     !- Vertex 3 Xcoordinate
    21.45,                    !- Vertex 3 Ycoordinate
    0,                        !- Vertex 3 Zcoordinate
    10.4,                     !- Vertex 4 Xcoordinate
    21.45,                    !- Vertex 4 Ycoordinate
    6.457;                    !- Vertex 4 Zcoordinate
