!- Windows Line endings 

Version,
    24.2;                     !- Version Identifier

SimulationControl,
    No,                       !- Do Zone Sizing Calculation
    No,                       !- Do System Sizing Calculation
    No,                       !- Do Plant Sizing Calculation
    No,                       !- Run Simulation for Sizing Periods
    Yes,                      !- Run Simulation for Weather File Run Periods
    No,                       !- Do HVAC Sizing Simulation for Sizing Periods
    1;                        !- Maximum Number of HVAC Sizing Simulation Passes

BUILDING,
    Pand.0599100000263233,    !- Name
    0,                        !- North Axis
    City,                     !- Terrain
    0.04,                     !- Loads Convergence Tolerance Value
    0.4,                      !- Temperature Convergence Tolerance Value
    FullExterior,             !- Solar Distribution
    25,                       !- Maximum Number of Warmup Days
    1;                        !- Minimum Number of Warmup Days

Timestep,
    6;                        !- Number of Timesteps per Hour

Site:Location,
    Rotterdam.The.Hague.AP_ZH_NLD Design_Conditions,    !- Name
    51.96,                    !- Latitude
    4.45,                     !- Longitude
    1,                        !- Time Zone
    -4.5;                     !- Elevation

RunPeriod,
    Run Period 1,             !- Name
    1,                        !- Begin Month
    1,                        !- Begin Day of Month
    ,                         !- Begin Year
    12,                       !- End Month
    31,                       !- End Day of Month
    ,                         !- End Year
    ,                         !- Day of Week for Start Day
    Yes,                      !- Use Weather File Holidays and Special Days
    Yes,                      !- Use Weather File Daylight Saving Period
    No,                       !- Apply Weekend Holiday Rule
    Yes,                      !- Use Weather File Rain Indicators
    Yes,                      !- Use Weather File Snow Indicators
    No,                       !- Treat Weather as Actual
    Hour24;                   !- First Hour Interpolation Starting Values

RunPeriodControl:DaylightSavingTime,
    Last Sunday in March,     !- Start Date
    Last Sunday in October;    !- End Date

SITE:GROUNDTEMPERATURE:BUILDINGSURFACE,
    18,                       !- January Ground Temperature
    18,                       !- February Ground Temperature
    18,                       !- March Ground Temperature
    18,                       !- April Ground Temperature
    18,                       !- May Ground Temperature
    18,                       !- June Ground Temperature
    18,                       !- July Ground Temperature
    18,                       !- August Ground Temperature
    18,                       !- September Ground Temperature
    18,                       !- October Ground Temperature
    18,                       !- November Ground Temperature
    18;                       !- December Ground Temperature

SCHEDULETYPELIMITS,
    Temperature,              !- Name
    -100,                     !- Lower Limit Value
    100,                      !- Upper Limit Value
    CONTINUOUS,               !- Numeric Type
    Temperature;              !- Unit Type

SCHEDULETYPELIMITS,
    Fraction,                 !- Name
    0,                        !- Lower Limit Value
    1,                        !- Upper Limit Value
    CONTINUOUS,               !- Numeric Type
    Dimensionless;            !- Unit Type

SCHEDULETYPELIMITS,
    Control Type,             !- Name
    0,                        !- Lower Limit Value
    4,                        !- Upper Limit Value
    DISCRETE,                 !- Numeric Type
    Dimensionless;            !- Unit Type

SCHEDULE:COMPACT,
    HeatingSetpoint_Zone_0599100000263233,    !- Name
    Temperature,              !- Schedule Type Limits Name
    Through: 12/31,           !- Field 1
    For: AllDays,             !- Field 2
    Until: 24:00,             !- Field 3
    21.0;                     !- Field 4

SCHEDULE:COMPACT,
    CoolingSetpoint_Zone_0599100000263233,    !- Name
    Temperature,              !- Schedule Type Limits Name
    Through: 12/31,           !- Field 1
    For: AllDays,             !- Field 2
    Until: 24:00,             !- Field 3
    24.0;                     !- Field 4

SCHEDULE:COMPACT,
    DualSetpointControlType,    !- Name
    Control Type,             !- Schedule Type Limits Name
    Through: 12/31,           !- Field 1
    For: AllDays,             !- Field 2
    Until: 24:00,             !- Field 3
    4;                        !- Field 4

SCHEDULE:COMPACT,
    AlwaysOn,                 !- Name
    Fraction,                 !- Schedule Type Limits Name
    Through: 12/31,           !- Field 1
    For: AllDays,             !- Field 2
    Until: 24:00,             !- Field 3
    1.0;                      !- Field 4

MATERIAL,
    G.D.1965,                 !- Name
    MediumSmooth,             !- Roughness
    0.15,                     !- Thickness
    1,                        !- Conductivity
    540,                      !- Density
    1210,                     !- Specific Heat
    0.9,                      !- Thermal Absorptance
    0.7,                      !- Solar Absorptance
    0.7;                      !- Visible Absorptance

MATERIAL,
    F.D.1965,                 !- Name
    Rough,                    !- Roughness
    0.3,                      !- Thickness
    0.8571428571428572,       !- Conductivity
    1920,                     !- Density
    840,                      !- Specific Heat
    0.9,                      !- Thermal Absorptance
    0.7,                      !- Solar Absorptance
    0.7;                      !- Visible Absorptance

MATERIAL,
    R.D.1965,                 !- Name
    MediumRough,              !- Roughness
    0.2,                      !- Thickness
    0.08,                     !- Conductivity
    1500,                     !- Density
    1000,                     !- Specific Heat
    0.9,                      !- Thermal Absorptance
    0.7,                      !- Solar Absorptance
    0.7;                      !- Visible Absorptance

WINDOWMATERIAL:SIMPLEGLAZINGSYSTEM,
    W.D.1965,                 !- Name
    1.8,                      !- UFactor
    0.4,                      !- Solar Heat Gain Coefficient
    0.6;                      !- Visible Transmittance

CONSTRUCTION,
    C_G,                      !- Name
    G.D.1965;                 !- Outside Layer

CONSTRUCTION,
    C_F,                      !- Name
    F.D.1965;                 !- Outside Layer

CONSTRUCTION,
    C_R,                      !- Name
    R.D.1965;                 !- Outside Layer

GlobalGeometryRules,
    UpperLeftCorner,          !- Starting Vertex Position
    Counterclockwise,         !- Vertex Entry Direction
    World,                    !- Coordinate System
    World,                    !- Daylighting Reference Point Coordinate System
    Relative;                 !- Rectangular Surface Coordinate System

ZONE,
    Zone_0599100000263233,    !- Name
    0,                        !- Direction of Relative North
    0,                        !- X Origin
    0,                        !- Y Origin
    0,                        !- Z Origin
    1,                        !- Type
    1,                        !- Multiplier
    Autocalculate,            !- Ceiling Height
    Autocalculate,            !- Volume
    autocalculate,            !- Floor Area
    ,                         !- Zone Inside Convection Algorithm
    ,                         !- Zone Outside Convection Algorithm
    Yes;                      !- Part of Total Floor Area

BUILDINGSURFACE:DETAILED,
    G_0,                      !- Name
    Floor,                    !- Surface Type
    C_G,                      !- Construction Name
    Zone_0599100000263233,    !- Zone Name
    ,                         !- Space Name
    Ground,                   !- Outside Boundary Condition
    ,                         !- Outside Boundary Condition Object
    SunExposed,               !- Sun Exposure
    WindExposed,              !- Wind Exposure
    0.5,                      !- View Factor to Ground
    36,                       !- Number of Vertices
    15.158,                   !- Vertex 1 Xcoordinate
    11.087,                   !- Vertex 1 Ycoordinate
    0,                        !- Vertex 1 Zcoordinate
    17.481,                   !- Vertex 2 Xcoordinate
    10.169,                   !- Vertex 2 Ycoordinate
    0,                        !- Vertex 2 Zcoordinate
    14.833,                   !- Vertex 3 Xcoordinate
    3.426,                    !- Vertex 3 Ycoordinate
    0,                        !- Vertex 3 Zcoordinate
    13.815,                   !- Vertex 4 Xcoordinate
    3.824,                    !- Vertex 4 Ycoordinate
    0,                        !- Vertex 4 Zcoordinate
    12.277,                   !- Vertex 5 Xcoordinate
    0,                        !- Vertex 5 Ycoordinate
    0,                        !- Vertex 5 Zcoordinate
    7.099,                    !- Vertex 6 Xcoordinate
    2.052,                    !- Vertex 6 Ycoordinate
    0,                        !- Vertex 6 Zcoordinate
    6.738,                    !- Vertex 7 Xcoordinate
    1.134,                    !- Vertex 7 Ycoordinate
    0,                        !- Vertex 7 Zcoordinate
    4.139,                    !- Vertex 8 Xcoordinate
    2.154,                    !- Vertex 8 Ycoordinate
    0,                        !- Vertex 8 Zcoordinate
    4.029,                    !- Vertex 9 Xcoordinate
    3.585,                    !- Vertex 9 Ycoordinate
    0,                        !- Vertex 9 Zcoordinate
    4.138,                    !- Vertex 10 Xcoordinate
    3.863,                    !- Vertex 10 Ycoordinate
    0,                        !- Vertex 10 Zcoordinate
    2.114,                    !- Vertex 11 Xcoordinate
    4.246,                    !- Vertex 11 Ycoordinate
    0,                        !- Vertex 11 Zcoordinate
    2.182,                    !- Vertex 12 Xcoordinate
    4.579,                    !- Vertex 12 Ycoordinate
    0,                        !- Vertex 12 Zcoordinate
    0.571,                    !- Vertex 13 Xcoordinate
    4.91,                     !- Vertex 13 Ycoordinate
    0,                        !- Vertex 13 Zcoordinate
    0.059,                    !- Vertex 14 Xcoordinate
    5.095,                    !- Vertex 14 Ycoordinate
    0,                        !- Vertex 14 Zcoordinate
    1.125,                    !- Vertex 15 Xcoordinate
    9.785,                    !- Vertex 15 Ycoordinate
    0,                        !- Vertex 15 Zcoordinate
    1.439,                    !- Vertex 16 Xcoordinate
    9.725,                    !- Vertex 16 Ycoordinate
    0,                        !- Vertex 16 Zcoordinate
    1.376,                    !- Vertex 17 Xcoordinate
    9.525,                    !- Vertex 17 Ycoordinate
    0,                        !- Vertex 17 Zcoordinate
    2.612,                    !- Vertex 18 Xcoordinate
    9.226,                    !- Vertex 18 Ycoordinate
    0,                        !- Vertex 18 Zcoordinate
    2.883,                    !- Vertex 19 Xcoordinate
    10.427,                   !- Vertex 19 Ycoordinate
    0,                        !- Vertex 19 Zcoordinate
    2.735,                    !- Vertex 20 Xcoordinate
    10.485,                   !- Vertex 20 Ycoordinate
    0,                        !- Vertex 20 Zcoordinate
    4.637,                    !- Vertex 21 Xcoordinate
    15.243,                   !- Vertex 21 Ycoordinate
    0,                        !- Vertex 21 Zcoordinate
    5.327,                    !- Vertex 22 Xcoordinate
    14.974,                   !- Vertex 22 Ycoordinate
    0,                        !- Vertex 22 Zcoordinate
    6.059,                    !- Vertex 23 Xcoordinate
    17.844,                   !- Vertex 23 Ycoordinate
    0,                        !- Vertex 23 Zcoordinate
    6.303,                    !- Vertex 24 Xcoordinate
    17.751,                   !- Vertex 24 Ycoordinate
    0,                        !- Vertex 24 Zcoordinate
    9.862,                    !- Vertex 25 Xcoordinate
    16.871,                   !- Vertex 25 Ycoordinate
    0,                        !- Vertex 25 Zcoordinate
    9.209,                    !- Vertex 26 Xcoordinate
    13.442,                   !- Vertex 26 Ycoordinate
    0,                        !- Vertex 26 Zcoordinate
    11.045,                   !- Vertex 27 Xcoordinate
    12.728,                   !- Vertex 27 Ycoordinate
    0,                        !- Vertex 27 Zcoordinate
    11.542,                   !- Vertex 28 Xcoordinate
    13.019,                   !- Vertex 28 Ycoordinate
    0,                        !- Vertex 28 Zcoordinate
    12.065,                   !- Vertex 29 Xcoordinate
    13.255,                   !- Vertex 29 Ycoordinate
    0,                        !- Vertex 29 Zcoordinate
    12.612,                   !- Vertex 30 Xcoordinate
    13.432,                   !- Vertex 30 Ycoordinate
    0,                        !- Vertex 30 Zcoordinate
    13.176,                   !- Vertex 31 Xcoordinate
    13.548,                   !- Vertex 31 Ycoordinate
    0,                        !- Vertex 31 Zcoordinate
    13.749,                   !- Vertex 32 Xcoordinate
    13.601,                   !- Vertex 32 Ycoordinate
    0,                        !- Vertex 32 Zcoordinate
    14.323,                   !- Vertex 33 Xcoordinate
    13.592,                   !- Vertex 33 Ycoordinate
    0,                        !- Vertex 33 Zcoordinate
    14.895,                   !- Vertex 34 Xcoordinate
    13.519,                   !- Vertex 34 Ycoordinate
    0,                        !- Vertex 34 Zcoordinate
    15.453,                   !- Vertex 35 Xcoordinate
    13.385,                   !- Vertex 35 Ycoordinate
    0,                        !- Vertex 35 Zcoordinate
    15.994,                   !- Vertex 36 Xcoordinate
    13.19,                    !- Vertex 36 Ycoordinate
    0;                        !- Vertex 36 Zcoordinate

BUILDINGSURFACE:DETAILED,
    F_1,                      !- Name
    Wall,                     !- Surface Type
    C_F,                      !- Construction Name
    Zone_0599100000263233,    !- Zone Name
    ,                         !- Space Name
    Outdoors,                 !- Outside Boundary Condition
    ,                         !- Outside Boundary Condition Object
    SunExposed,               !- Sun Exposure
    WindExposed,              !- Wind Exposure
    0.5,                      !- View Factor to Ground
    4,                        !- Number of Vertices
    7.099,                    !- Vertex 1 Xcoordinate
    2.052,                    !- Vertex 1 Ycoordinate
    6.167,                    !- Vertex 1 Zcoordinate
    7.099,                    !- Vertex 2 Xcoordinate
    2.052,                    !- Vertex 2 Ycoordinate
    0,                        !- Vertex 2 Zcoordinate
    12.277,                   !- Vertex 3 Xcoordinate
    0,                        !- Vertex 3 Ycoordinate
    0,                        !- Vertex 3 Zcoordinate
    12.277,                   !- Vertex 4 Xcoordinate
    0,                        !- Vertex 4 Ycoordinate
    6.167;                    !- Vertex 4 Zcoordinate

BUILDINGSURFACE:DETAILED,
    F_2,                      !- Name
    Wall,                     !- Surface Type
    C_F,                      !- Construction Name
    Zone_0599100000263233,    !- Zone Name
    ,                         !- Space Name
    Outdoors,                 !- Outside Boundary Condition
    ,                         !- Outside Boundary Condition Object
    SunExposed,               !- Sun Exposure
    WindExposed,              !- Wind Exposure
    0.5,                      !- View Factor to Ground
    4,                        !- Number of Vertices
    12.277,                   !- Vertex 1 Xcoordinate
    0,                        !- Vertex 1 Ycoordinate
    6.167,                    !- Vertex 1 Zcoordinate
    12.277,                   !- Vertex 2 Xcoordinate
    0,                        !- Vertex 2 Ycoordinate
    0,                        !- Vertex 2 Zcoordinate
    13.815,                   !- Vertex 3 Xcoordinate
    3.824,                    !- Vertex 3 Ycoordinate
    0,                        !- Vertex 3 Zcoordinate
    13.815,                   !- Vertex 4 Xcoordinate
    3.824,                    !- Vertex 4 Ycoordinate
    6.167;                    !- Vertex 4 Zcoordinate

BUILDINGSURFACE:DETAILED,
    F_3,                      !- Name
    Wall,                     !- Surface Type
    C_F,                      !- Construction Name
    Zone_0599100000263233,    !- Zone Name
    ,                         !- Space Name
    Outdoors,                 !- Outside Boundary Condition
    ,                         !- Outside Boundary Condition Object
    SunExposed,               !- Sun Exposure
    WindExposed,              !- Wind Exposure
    0.5,                      !- View Factor to Ground
    4,                        !- Number of Vertices
    17.481,                   !- Vertex 1 Xcoordinate
    10.169,                   !- Vertex 1 Ycoordinate
    6.167,                    !- Vertex 1 Zcoordinate
    17.481,                   !- Vertex 2 Xcoordinate
    10.169,                   !- Vertex 2 Ycoordinate
    0,                        !- Vertex 2 Zcoordinate
    15.158,                   !- Vertex 3 Xcoordinate
    11.087,                   !- Vertex 3 Ycoordinate
    0,                        !- Vertex 3 Zcoordinate
    15.158,                   !- Vertex 4 Xcoordinate
    11.087,                   !- Vertex 4 Ycoordinate
    6.167;                    !- Vertex 4 Zcoordinate

BUILDINGSURFACE:DETAILED,
    F_4,                      !- Name
    Wall,                     !- Surface Type
    C_F,                      !- Construction Name
    Zone_0599100000263233,    !- Zone Name
    ,                         !- Space Name
    Outdoors,                 !- Outside Boundary Condition
    ,                         !- Outside Boundary Condition Object
    SunExposed,               !- Sun Exposure
    WindExposed,              !- Wind Exposure
    0.5,                      !- View Factor to Ground
    4,                        !- Number of Vertices
    13.815,                   !- Vertex 1 Xcoordinate
    3.824,                    !- Vertex 1 Ycoordinate
    6.167,                    !- Vertex 1 Zcoordinate
    13.815,                   !- Vertex 2 Xcoordinate
    3.824,                    !- Vertex 2 Ycoordinate
    0,                        !- Vertex 2 Zcoordinate
    14.833,                   !- Vertex 3 Xcoordinate
    3.426,                    !- Vertex 3 Ycoordinate
    0,                        !- Vertex 3 Zcoordinate
    14.833,                   !- Vertex 4 Xcoordinate
    3.426,                    !- Vertex 4 Ycoordinate
    6.167;                    !- Vertex 4 Zcoordinate

BUILDINGSURFACE:DETAILED,
    F_5,                      !- Name
    Wall,                     !- Surface Type
    C_F,                      !- Construction Name
    Zone_0599100000263233,    !- Zone Name
    ,                         !- Space Name
    Outdoors,                 !- Outside Boundary Condition
    ,                         !- Outside Boundary Condition Object
    SunExposed,               !- Sun Exposure
    WindExposed,              !- Wind Exposure
    0.5,                      !- View Factor to Ground
    4,                        !- Number of Vertices
    14.833,                   !- Vertex 1 Xcoordinate
    3.426,                    !- Vertex 1 Ycoordinate
    6.167,                    !- Vertex 1 Zcoordinate
    14.833,                   !- Vertex 2 Xcoordinate
    3.426,                    !- Vertex 2 Ycoordinate
    0,                        !- Vertex 2 Zcoordinate
    17.481,                   !- Vertex 3 Xcoordinate
    10.169,                   !- Vertex 3 Ycoordinate
    0,                        !- Vertex 3 Zcoordinate
    17.481,                   !- Vertex 4 Xcoordinate
    10.169,                   !- Vertex 4 Ycoordinate
    6.167;                    !- Vertex 4 Zcoordinate

BUILDINGSURFACE:DETAILED,
    F_6,                      !- Name
    Wall,                     !- Surface Type
    C_F,                      !- Construction Name
    Zone_0599100000263233,    !- Zone Name
    ,                         !- Space Name
    Outdoors,                 !- Outside Boundary Condition
    ,                         !- Outside Boundary Condition Object
    SunExposed,               !- Sun Exposure
    WindExposed,              !- Wind Exposure
    0.5,                      !- View Factor to Ground
    4,                        !- Number of Vertices
    15.158,                   !- Vertex 1 Xcoordinate
    11.087,                   !- Vertex 1 Ycoordinate
    6.167,                    !- Vertex 1 Zcoordinate
    15.158,                   !- Vertex 2 Xcoordinate
    11.087,                   !- Vertex 2 Ycoordinate
    0,                        !- Vertex 2 Zcoordinate
    15.994,                   !- Vertex 3 Xcoordinate
    13.19,                    !- Vertex 3 Ycoordinate
    0,                        !- Vertex 3 Zcoordinate
    15.994,                   !- Vertex 4 Xcoordinate
    13.19,                    !- Vertex 4 Ycoordinate
    6.167;                    !- Vertex 4 Zcoordinate

BUILDINGSURFACE:DETAILED,
    F_7,                      !- Name
    Wall,                     !- Surface Type
    C_F,                      !- Construction Name
    Zone_0599100000263233,    !- Zone Name
    ,                         !- Space Name
    Outdoors,                 !- Outside Boundary Condition
    ,                         !- Outside Boundary Condition Object
    SunExposed,               !- Sun Exposure
    WindExposed,              !- Wind Exposure
    0.5,                      !- View Factor to Ground
    4,                        !- Number of Vertices
    14.895,                   !- Vertex 1 Xcoordinate
    13.519,                   !- Vertex 1 Ycoordinate
    6.167,                    !- Vertex 1 Zcoordinate
    14.895,                   !- Vertex 2 Xcoordinate
    13.519,                   !- Vertex 2 Ycoordinate
    0,                        !- Vertex 2 Zcoordinate
    14.323,                   !- Vertex 3 Xcoordinate
    13.592,                   !- Vertex 3 Ycoordinate
    0,                        !- Vertex 3 Zcoordinate
    14.323,                   !- Vertex 4 Xcoordinate
    13.592,                   !- Vertex 4 Ycoordinate
    6.167;                    !- Vertex 4 Zcoordinate

BUILDINGSURFACE:DETAILED,
    F_8,                      !- Name
    Wall,                     !- Surface Type
    C_F,                      !- Construction Name
    Zone_0599100000263233,    !- Zone Name
    ,                         !- Space Name
    Outdoors,                 !- Outside Boundary Condition
    ,                         !- Outside Boundary Condition Object
    SunExposed,               !- Sun Exposure
    WindExposed,              !- Wind Exposure
    0.5,                      !- View Factor to Ground
    4,                        !- Number of Vertices
    15.994,                   !- Vertex 1 Xcoordinate
    13.19,                    !- Vertex 1 Ycoordinate
    6.167,                    !- Vertex 1 Zcoordinate
    15.994,                   !- Vertex 2 Xcoordinate
    13.19,                    !- Vertex 2 Ycoordinate
    0,                        !- Vertex 2 Zcoordinate
    15.453,                   !- Vertex 3 Xcoordinate
    13.385,                   !- Vertex 3 Ycoordinate
    0,                        !- Vertex 3 Zcoordinate
    15.453,                   !- Vertex 4 Xcoordinate
    13.385,                   !- Vertex 4 Ycoordinate
    6.167;                    !- Vertex 4 Zcoordinate

BUILDINGSURFACE:DETAILED,
    F_9,                      !- Name
    Wall,                     !- Surface Type
    C_F,                      !- Construction Name
    Zone_0599100000263233,    !- Zone Name
    ,                         !- Space Name
    Outdoors,                 !- Outside Boundary Condition
    ,                         !- Outside Boundary Condition Object
    SunExposed,               !- Sun Exposure
    WindExposed,              !- Wind Exposure
    0.5,                      !- View Factor to Ground
    4,                        !- Number of Vertices
    14.323,                   !- Vertex 1 Xcoordinate
    13.592,                   !- Vertex 1 Ycoordinate
    6.167,                    !- Vertex 1 Zcoordinate
    14.323,                   !- Vertex 2 Xcoordinate
    13.592,                   !- Vertex 2 Ycoordinate
    0,                        !- Vertex 2 Zcoordinate
    13.749,                   !- Vertex 3 Xcoordinate
    13.601,                   !- Vertex 3 Ycoordinate
    0,                        !- Vertex 3 Zcoordinate
    13.749,                   !- Vertex 4 Xcoordinate
    13.601,                   !- Vertex 4 Ycoordinate
    6.167;                    !- Vertex 4 Zcoordinate

BUILDINGSURFACE:DETAILED,
    F_10,                     !- Name
    Wall,                     !- Surface Type
    C_F,                      !- Construction Name
    Zone_0599100000263233,    !- Zone Name
    ,                         !- Space Name
    Outdoors,                 !- Outside Boundary Condition
    ,                         !- Outside Boundary Condition Object
    SunExposed,               !- Sun Exposure
    WindExposed,              !- Wind Exposure
    0.5,                      !- View Factor to Ground
    4,                        !- Number of Vertices
    15.453,                   !- Vertex 1 Xcoordinate
    13.385,                   !- Vertex 1 Ycoordinate
    6.167,                    !- Vertex 1 Zcoordinate
    15.453,                   !- Vertex 2 Xcoordinate
    13.385,                   !- Vertex 2 Ycoordinate
    0,                        !- Vertex 2 Zcoordinate
    14.895,                   !- Vertex 3 Xcoordinate
    13.519,                   !- Vertex 3 Ycoordinate
    0,                        !- Vertex 3 Zcoordinate
    14.895,                   !- Vertex 4 Xcoordinate
    13.519,                   !- Vertex 4 Ycoordinate
    6.167;                    !- Vertex 4 Zcoordinate

BUILDINGSURFACE:DETAILED,
    F_11,                     !- Name
    Wall,                     !- Surface Type
    C_F,                      !- Construction Name
    Zone_0599100000263233,    !- Zone Name
    ,                         !- Space Name
    Outdoors,                 !- Outside Boundary Condition
    ,                         !- Outside Boundary Condition Object
    SunExposed,               !- Sun Exposure
    WindExposed,              !- Wind Exposure
    0.5,                      !- View Factor to Ground
    4,                        !- Number of Vertices
    13.749,                   !- Vertex 1 Xcoordinate
    13.601,                   !- Vertex 1 Ycoordinate
    6.167,                    !- Vertex 1 Zcoordinate
    13.749,                   !- Vertex 2 Xcoordinate
    13.601,                   !- Vertex 2 Ycoordinate
    0,                        !- Vertex 2 Zcoordinate
    13.176,                   !- Vertex 3 Xcoordinate
    13.548,                   !- Vertex 3 Ycoordinate
    0,                        !- Vertex 3 Zcoordinate
    13.176,                   !- Vertex 4 Xcoordinate
    13.548,                   !- Vertex 4 Ycoordinate
    6.167;                    !- Vertex 4 Zcoordinate

BUILDINGSURFACE:DETAILED,
    F_12,                     !- Name
    Wall,                     !- Surface Type
    C_F,                      !- Construction Name
    Zone_0599100000263233,    !- Zone Name
    ,                         !- Space Name
    Outdoors,                 !- Outside Boundary Condition
    ,                         !- Outside Boundary Condition Object
    SunExposed,               !- Sun Exposure
    WindExposed,              !- Wind Exposure
    0.5,                      !- View Factor to Ground
    4,                        !- Number of Vertices
    12.612,                   !- Vertex 1 Xcoordinate
    13.432,                   !- Vertex 1 Ycoordinate
    6.167,                    !- Vertex 1 Zcoordinate
    12.612,                   !- Vertex 2 Xcoordinate
    13.432,                   !- Vertex 2 Ycoordinate
    0,                        !- Vertex 2 Zcoordinate
    12.065,                   !- Vertex 3 Xcoordinate
    13.255,                   !- Vertex 3 Ycoordinate
    0,                        !- Vertex 3 Zcoordinate
    12.065,                   !- Vertex 4 Xcoordinate
    13.255,                   !- Vertex 4 Ycoordinate
    6.167;                    !- Vertex 4 Zcoordinate

BUILDINGSURFACE:DETAILED,
    F_13,                     !- Name
    Wall,                     !- Surface Type
    C_F,                      !- Construction Name
    Zone_0599100000263233,    !- Zone Name
    ,                         !- Space Name
    Outdoors,                 !- Outside Boundary Condition
    ,                         !- Outside Boundary Condition Object
    SunExposed,               !- Sun Exposure
    WindExposed,              !- Wind Exposure
    0.5,                      !- View Factor to Ground
    4,                        !- Number of Vertices
    9.209,                    !- Vertex 1 Xcoordinate
    13.442,                   !- Vertex 1 Ycoordinate
    6.167,                    !- Vertex 1 Zcoordinate
    9.209,                    !- Vertex 2 Xcoordinate
    13.442,                   !- Vertex 2 Ycoordinate
    0,                        !- Vertex 2 Zcoordinate
    9.862,                    !- Vertex 3 Xcoordinate
    16.871,                   !- Vertex 3 Ycoordinate