!- Windows Line endings 

Version,
    24.2;                     !- Version Identifier

SimulationControl,
    No,                       !- Do Zone Sizing Calculation
    No,                       !- Do System Sizing Calculation
    No,                       !- Do Plant Sizing Calculation
    No,                       !- Run Simulation for Sizing Periods
    Yes,                      !- Run Simulation for Weather File Run Periods
    No,                       !- Do HVAC Sizing Simulation for Sizing Periods
    1;                        !- Maximum Number of HVAC Sizing Simulation Passes

BUILDING,
    Pand.0599100000166829,    !- Name
    0,                        !- North Axis
    City,                     !- Terrain
    0.04,                     !- Loads Convergence Tolerance Value
    0.4,                      !- Temperature Convergence Tolerance Value
    FullExterior,             !- Solar Distribution
    25,                       !- Maximum Number of Warmup Days
    1;                        !- Minimum Number of Warmup Days

Timestep,
    6;                        !- Number of Timesteps per Hour

Site:Location,
    Rotterdam.The.Hague.AP_ZH_NLD Design_Conditions,    !- Name
    51.96,                    !- Latitude
    4.45,                     !- Longitude
    1,                        !- Time Zone
    -4.5;                     !- Elevation

RunPeriod,
    Run Period 1,             !- Name
    1,                        !- Begin Month
    1,                        !- Begin Day of Month
    ,                         !- Begin Year
    12,                       !- End Month
    31,                       !- End Day of Month
    ,                         !- End Year
    ,                         !- Day of Week for Start Day
    Yes,                      !- Use Weather File Holidays and Special Days
    Yes,                      !- Use Weather File Daylight Saving Period
    No,                       !- Apply Weekend Holiday Rule
    Yes,                      !- Use Weather File Rain Indicators
    Yes,                      !- Use Weather File Snow Indicators
    No,                       !- Treat Weather as Actual
    Hour24;                   !- First Hour Interpolation Starting Values

RunPeriodControl:DaylightSavingTime,
    Last Sunday in March,     !- Start Date
    Last Sunday in October;    !- End Date

SITE:GROUNDTEMPERATURE:BUILDINGSURFACE,
    18,                       !- January Ground Temperature
    18,                       !- February Ground Temperature
    18,                       !- March Ground Temperature
    18,                       !- April Ground Temperature
    18,                       !- May Ground Temperature
    18,                       !- June Ground Temperature
    18,                       !- July Ground Temperature
    18,                       !- August Ground Temperature
    18,                       !- September Ground Temperature
    18,                       !- October Ground Temperature
    18,                       !- November Ground Temperature
    18;                       !- December Ground Temperature

SCHEDULETYPELIMITS,
    Temperature,              !- Name
    -100,                     !- Lower Limit Value
    100,                      !- Upper Limit Value
    CONTINUOUS,               !- Numeric Type
    Temperature;              !- Unit Type

SCHEDULETYPELIMITS,
    Fraction,                 !- Name
    0,                        !- Lower Limit Value
    1,                        !- Upper Limit Value
    CONTINUOUS,               !- Numeric Type
    Dimensionless;            !- Unit Type

SCHEDULETYPELIMITS,
    Control Type,             !- Name
    0,                        !- Lower Limit Value
    4,                        !- Upper Limit Value
    DISCRETE,                 !- Numeric Type
    Dimensionless;            !- Unit Type

SCHEDULE:COMPACT,
    HeatingSetpoint_Zone_0599100000166829,    !- Name
    Temperature,              !- Schedule Type Limits Name
    Through: 12/31,           !- Field 1
    For: AllDays,             !- Field 2
    Until: 24:00,             !- Field 3
    21.0;                     !- Field 4

SCHEDULE:COMPACT,
    CoolingSetpoint_Zone_0599100000166829,    !- Name
    Temperature,              !- Schedule Type Limits Name
    Through: 12/31,           !- Field 1
    For: AllDays,             !- Field 2
    Until: 24:00,             !- Field 3
    24.0;                     !- Field 4

SCHEDULE:COMPACT,
    DualSetpointControlType,    !- Name
    Control Type,             !- Schedule Type Limits Name
    Through: 12/31,           !- Field 1
    For: AllDays,             !- Field 2
    Until: 24:00,             !- Field 3
    4;                        !- Field 4

SCHEDULE:COMPACT,
    AlwaysOn,                 !- Name
    Fraction,                 !- Schedule Type Limits Name
    Through: 12/31,           !- Field 1
    For: AllDays,             !- Field 2
    Until: 24:00,             !- Field 3
    1.0;                      !- Field 4

MATERIAL,
    G.D.1975-1991,            !- Name
    MediumSmooth,             !- Roughness
    0.15,                     !- Thickness
    2.884615e-01,             !- Conductivity
    540,                      !- Density
    1210,                     !- Specific Heat
    0.9,                      !- Thermal Absorptance
    0.7,                      !- Solar Absorptance
    0.7;                      !- Visible Absorptance

MATERIAL,
    F.D.1975-1991,            !- Name
    Rough,                    !- Roughness
    0.3,                      !- Thickness
    2.307692e-01,             !- Conductivity
    1920,                     !- Density
    840,                      !- Specific Heat
    0.9,                      !- Thermal Absorptance
    0.7,                      !- Solar Absorptance
    0.7;                      !- Visible Absorptance

MATERIAL,
    R.D.1975-1991,            !- Name
    MediumRough,              !- Roughness
    0.2,                      !- Thickness
    1.538462e-01,             !- Conductivity
    1500,                     !- Density
    1000,                     !- Specific Heat
    0.9,                      !- Thermal Absorptance
    0.7,                      !- Solar Absorptance
    0.7;                      !- Visible Absorptance

WINDOWMATERIAL:SIMPLEGLAZINGSYSTEM,
    W.D.1975-1991,            !- Name
    2.9,                      !- UFactor
    0.6,                      !- Solar Heat Gain Coefficient
    0.6;                      !- Visible Transmittance

CONSTRUCTION,
    C_G,                      !- Name
    G.D.1975-1991;            !- Outside Layer

CONSTRUCTION,
    C_F,                      !- Name
    F.D.1975-1991;            !- Outside Layer

CONSTRUCTION,
    C_R,                      !- Name
    R.D.1975-1991;            !- Outside Layer

GlobalGeometryRules,
    UpperLeftCorner,          !- Starting Vertex Position
    Counterclockwise,         !- Vertex Entry Direction
    World,                    !- Coordinate System
    World,                    !- Daylighting Reference Point Coordinate System
    Relative;                 !- Rectangular Surface Coordinate System

ZONE,
    Zone_0599100000166829,    !- Name
    0,                        !- Direction of Relative North
    0,                        !- X Origin
    0,                        !- Y Origin
    0,                        !- Z Origin
    1,                        !- Type
    1,                        !- Multiplier
    Autocalculate,            !- Ceiling Height
    Autocalculate,            !- Volume
    autocalculate,            !- Floor Area
    ,                         !- Zone Inside Convection Algorithm
    ,                         !- Zone Outside Convection Algorithm
    Yes;                      !- Part of Total Floor Area

BUILDINGSURFACE:DETAILED,
    G_0,                      !- Name
    Floor,                    !- Surface Type
    C_G,                      !- Construction Name
    Zone_0599100000166829,    !- Zone Name
    ,                         !- Space Name
    Ground,                   !- Outside Boundary Condition
    ,                         !- Outside Boundary Condition Object
    SunExposed,               !- Sun Exposure
    WindExposed,              !- Wind Exposure
    0.5,                      !- View Factor to Ground
    31,                       !- Number of Vertices
    33.853,                   !- Vertex 1 Xcoordinate
    14.769,                   !- Vertex 1 Ycoordinate
    2.811,                    !- Vertex 1 Zcoordinate
    32.193,                   !- Vertex 2 Xcoordinate
    2.869,                    !- Vertex 2 Ycoordinate
    2.811,                    !- Vertex 2 Zcoordinate
    29.742,                   !- Vertex 3 Xcoordinate
    3.219,                    !- Vertex 3 Ycoordinate
    2.811,                    !- Vertex 3 Zcoordinate
    29.443,                   !- Vertex 4 Xcoordinate
    1.46,                     !- Vertex 4 Ycoordinate
    2.811,                    !- Vertex 4 Zcoordinate
    28.983,                   !- Vertex 5 Xcoordinate
    0.719,                    !- Vertex 5 Ycoordinate
    2.811,                    !- Vertex 5 Zcoordinate
    28.282,                   !- Vertex 6 Xcoordinate
    0.2,                      !- Vertex 6 Ycoordinate
    2.811,                    !- Vertex 6 Zcoordinate
    27.423,                   !- Vertex 7 Xcoordinate
    0,                        !- Vertex 7 Ycoordinate
    2.811,                    !- Vertex 7 Zcoordinate
    26.543,                   !- Vertex 8 Xcoordinate
    0.119,                    !- Vertex 8 Ycoordinate
    2.811,                    !- Vertex 8 Zcoordinate
    25.763,                   !- Vertex 9 Xcoordinate
    0.549,                    !- Vertex 9 Ycoordinate
    2.811,                    !- Vertex 9 Zcoordinate
    25.222,                   !- Vertex 10 Xcoordinate
    1.229,                    !- Vertex 10 Ycoordinate
    2.811,                    !- Vertex 10 Zcoordinate
    24.992,                   !- Vertex 11 Xcoordinate
    2.079,                    !- Vertex 11 Ycoordinate
    2.811,                    !- Vertex 11 Zcoordinate
    25.212,                   !- Vertex 12 Xcoordinate
    3.859,                    !- Vertex 12 Ycoordinate
    2.811,                    !- Vertex 12 Zcoordinate
    22.763,                   !- Vertex 13 Xcoordinate
    4.2,                      !- Vertex 13 Ycoordinate
    2.811,                    !- Vertex 13 Zcoordinate
    23.522,                   !- Vertex 14 Xcoordinate
    9.649,                    !- Vertex 14 Ycoordinate
    2.811,                    !- Vertex 14 Zcoordinate
    11.842,                   !- Vertex 15 Xcoordinate
    11.299,                   !- Vertex 15 Ycoordinate
    2.811,                    !- Vertex 15 Zcoordinate
    11.876,                   !- Vertex 16 Xcoordinate
    11.456,                   !- Vertex 16 Ycoordinate
    2.811,                    !- Vertex 16 Zcoordinate
    9.897,                    !- Vertex 17 Xcoordinate
    11.737,                   !- Vertex 17 Ycoordinate
    2.811,                    !- Vertex 17 Zcoordinate
    9.406,                    !- Vertex 18 Xcoordinate
    8.271,                    !- Vertex 18 Ycoordinate
    2.811,                    !- Vertex 18 Zcoordinate
    0,                        !- Vertex 19 Xcoordinate
    9.603,                    !- Vertex 19 Ycoordinate
    2.811,                    !- Vertex 19 Zcoordinate
    2.363,                    !- Vertex 20 Xcoordinate
    26.302,                   !- Vertex 20 Ycoordinate
    2.811,                    !- Vertex 20 Zcoordinate
    11.772,                   !- Vertex 21 Xcoordinate
    24.935,                   !- Vertex 21 Ycoordinate
    2.811,                    !- Vertex 21 Zcoordinate
    11.535,                   !- Vertex 22 Xcoordinate
    23.311,                   !- Vertex 22 Ycoordinate
    2.811,                    !- Vertex 22 Zcoordinate
    13.501,                   !- Vertex 23 Xcoordinate
    23.025,                   !- Vertex 23 Ycoordinate
    2.811,                    !- Vertex 23 Zcoordinate
    13.522,                   !- Vertex 24 Xcoordinate
    23.18,                    !- Vertex 24 Ycoordinate
    2.811,                    !- Vertex 24 Zcoordinate
    31.156,                   !- Vertex 25 Xcoordinate
    20.709,                   !- Vertex 25 Ycoordinate
    2.811,                    !- Vertex 25 Zcoordinate
    31.363,                   !- Vertex 26 Xcoordinate
    22.2,                     !- Vertex 26 Ycoordinate
    2.811,                    !- Vertex 26 Zcoordinate
    38.282,                   !- Vertex 27 Xcoordinate
    21.219,                   !- Vertex 27 Ycoordinate
    2.811,                    !- Vertex 27 Zcoordinate
    37.366,                   !- Vertex 28 Xcoordinate
    14.664,                   !- Vertex 28 Ycoordinate
    2.811,                    !- Vertex 28 Zcoordinate
    37.183,                   !- Vertex 29 Xcoordinate
    14.883,                   !- Vertex 29 Ycoordinate
    2.811,                    !- Vertex 29 Zcoordinate
    37.144,                   !- Vertex 30 Xcoordinate
    14.519,                   !- Vertex 30 Ycoordinate
    2.811,                    !- Vertex 30 Zcoordinate
    35.784,                   !- Vertex 31 Xcoordinate
    14.496,                   !- Vertex 31 Ycoordinate
    2.811;                    !- Vertex 31 Zcoordinate

BUILDINGSURFACE:DETAILED,
    F_1,                      !- Name
    Wall,                     !- Surface Type
    C_F,                      !- Construction Name
    Zone_0599100000166829,    !- Zone Name
    ,                         !- Space Name
    Outdoors,                 !- Outside Boundary Condition
    ,                         !- Outside Boundary Condition Object
    SunExposed,               !- Sun Exposure
    WindExposed,              !- Wind Exposure
    0.5,                      !- View Factor to Ground
    4,                        !- Number of Vertices
    2.363,                    !- Vertex 1 Xcoordinate
    26.302,                   !- Vertex 1 Ycoordinate
    8.431,                    !- Vertex 1 Zcoordinate
    2.363,                    !- Vertex 2 Xcoordinate
    26.302,                   !- Vertex 2 Ycoordinate
    2.811,                    !- Vertex 2 Zcoordinate
    0,                        !- Vertex 3 Xcoordinate
    9.603,                    !- Vertex 3 Ycoordinate
    2.811,                    !- Vertex 3 Zcoordinate
    0,                        !- Vertex 4 Xcoordinate
    9.603,                    !- Vertex 4 Ycoordinate
    8.431;                    !- Vertex 4 Zcoordinate

BUILDINGSURFACE:DETAILED,
    F_2,                      !- Name
    Wall,                     !- Surface Type
    C_F,                      !- Construction Name
    Zone_0599100000166829,    !- Zone Name
    ,                         !- Space Name
    Outdoors,                 !- Outside Boundary Condition
    ,                         !- Outside Boundary Condition Object
    SunExposed,               !- Sun Exposure
    WindExposed,              !- Wind Exposure
    0.5,                      !- View Factor to Ground
    4,                        !- Number of Vertices
    0,                        !- Vertex 1 Xcoordinate
    9.603,                    !- Vertex 1 Ycoordinate
    8.431,                    !- Vertex 1 Zcoordinate
    0,                        !- Vertex 2 Xcoordinate
    9.603,                    !- Vertex 2 Ycoordinate
    2.811,                    !- Vertex 2 Zcoordinate
    9.406,                    !- Vertex 3 Xcoordinate
    8.271,                    !- Vertex 3 Ycoordinate
    2.811,                    !- Vertex 3 Zcoordinate
    9.406,                    !- Vertex 4 Xcoordinate
    8.271,                    !- Vertex 4 Ycoordinate
    8.431;                    !- Vertex 4 Zcoordinate

BUILDINGSURFACE:DETAILED,
    F_3,                      !- Name
    Wall,                     !- Surface Type
    C_F,                      !- Construction Name
    Zone_0599100000166829,    !- Zone Name
    ,                         !- Space Name
    Outdoors,                 !- Outside Boundary Condition
    ,                         !- Outside Boundary Condition Object
    SunExposed,               !- Sun Exposure
    WindExposed,              !- Wind Exposure
    0.5,                      !- View Factor to Ground
    4,                        !- Number of Vertices
    9.406,                    !- Vertex 1 Xcoordinate
    8.271,                    !- Vertex 1 Ycoordinate
    8.431,                    !- Vertex 1 Zcoordinate
    9.406,                    !- Vertex 2 Xcoordinate
    8.271,                    !- Vertex 2 Ycoordinate
    2.811,                    !- Vertex 2 Zcoordinate
    9.897,                    !- Vertex 3 Xcoordinate
    11.737,                   !- Vertex 3 Ycoordinate
    2.811,                    !- Vertex 3 Zcoordinate
    9.897,                    !- Vertex 4 Xcoordinate
    11.737,                   !- Vertex 4 Ycoordinate
    8.431;                    !- Vertex 4 Zcoordinate

BUILDINGSURFACE:DETAILED,
    F_4,                      !- Name
    Wall,                     !- Surface Type
    C_F,                      !- Construction Name
    Zone_0599100000166829,    !- Zone Name
    ,                         !- Space Name
    Outdoors,                 !- Outside Boundary Condition
    ,                         !- Outside Boundary Condition Object
    SunExposed,               !- Sun Exposure
    WindExposed,              !- Wind Exposure
    0.5,                      !- View Factor to Ground
    4,                        !- Number of Vertices
    11.535,                   !- Vertex 1 Xcoordinate
    23.311,                   !- Vertex 1 Ycoordinate
    8.431,                    !- Vertex 1 Zcoordinate
    11.535,                   !- Vertex 2 Xcoordinate
    23.311,                   !- Vertex 2 Ycoordinate
    2.811,                    !- Vertex 2 Zcoordinate
    11.772,                   !- Vertex 3 Xcoordinate
    24.935,                   !- Vertex 3 Ycoordinate
    2.811,                    !- Vertex 3 Zcoordinate
    11.772,                   !- Vertex 4 Xcoordinate
    24.935,                   !- Vertex 4 Ycoordinate
    8.431;                    !- Vertex 4 Zcoordinate

BUILDINGSURFACE:DETAILED,
    F_5,                      !- Name
    Wall,                     !- Surface Type
    C_F,                      !- Construction Name
    Zone_0599100000166829,    !- Zone Name
    ,                         !- Space Name
    Outdoors,                 !- Outside Boundary Condition
    ,                         !- Outside Boundary Condition Object
    SunExposed,               !- Sun Exposure
    WindExposed,              !- Wind Exposure
    0.5,                      !- View Factor to Ground
    4,                        !- Number of Vertices
    32.193,                   !- Vertex 1 Xcoordinate
    2.869,                    !- Vertex 1 Ycoordinate
    8.431,                    !- Vertex 1 Zcoordinate
    32.193,                   !- Vertex 2 Xcoordinate
    2.869,                    !- Vertex 2 Ycoordinate
    2.811,                    !- Vertex 2 Zcoordinate
    33.853,                   !- Vertex 3 Xcoordinate
    14.769,                   !- Vertex 3 Ycoordinate
    2.811,                    !- Vertex 3 Zcoordinate
    33.853,                   !- Vertex 4 Xcoordinate
    14.769,                   !- Vertex 4 Ycoordinate
    8.431;                    !- Vertex 4 Zcoordinate

BUILDINGSURFACE:DETAILED,
    F_6,                      !- Name
    Wall,                     !- Surface Type
    C_F,                      !- Construction Name
    Zone_0599100000166829,    !- Zone Name
    ,                         !- Space Name
    Outdoors,                 !- Outside Boundary Condition
    ,                         !- Outside Boundary Condition Object
    SunExposed,               !- Sun Exposure
    WindExposed,              !- Wind Exposure
    0.5,                      !- View Factor to Ground
    4,                        !- Number of Vertices
    29.742,                   !- Vertex 1 Xcoordinate
    3.219,                    !- Vertex 1 Ycoordinate
    8.431,                    !- Vertex 1 Zcoordinate
    29.742,                   !- Vertex 2 Xcoordinate
    3.219,                    !- Vertex 2 Ycoordinate
    2.811,                    !- Vertex 2 Zcoordinate
    32.193,                   !- Vertex 3 Xcoordinate
    2.869,                    !- Vertex 3 Ycoordinate
    2.811,                    !- Vertex 3 Zcoordinate
    32.193,                   !- Vertex 4 Xcoordinate
    2.869,                    !- Vertex 4 Ycoordinate
    8.431;                    !- Vertex 4 Zcoordinate

BUILDINGSURFACE:DETAILED,
    F_7,                      !- Name
    Wall,                     !- Surface Type
    C_F,                      !- Construction Name
    Zone_0599100000166829,    !- Zone Name
    ,                         !- Space Name
    Outdoors,                 !- Outside Boundary Condition
    ,                         !- Outside Boundary Condition Object
    SunExposed,               !- Sun Exposure
    WindExposed,              !- Wind Exposure
    0.5,                      !- View Factor to Ground
    4,                        !- Number of Vertices
    9.897,                    !- Vertex 1 Xcoordinate
    11.737,                   !- Vertex 1 Ycoordinate
    8.431,                    !- Vertex 1 Zcoordinate
    9.897,                    !- Vertex 2 Xcoordinate
    11.737,                   !- Vertex 2 Ycoordinate
    2.811,                    !- Vertex 2 Zcoordinate
    11.876,                   !- Vertex 3 Xcoordinate
    11.456,                   !- Vertex 3 Ycoordinate
    2.811,                    !- Vertex 3 Zcoordinate
    11.876,                   !- Vertex 4 Xcoordinate
    11.456,                   !- Vertex 4 Ycoordinate
    8.431;                    !- Vertex 4 Zcoordinate

BUILDINGSURFACE:DETAILED,
    F_8,                      !- Name
    Wall,                     !- Surface Type
    C_F,                      !- Construction Name
    Zone_0599100000166829,    !- Zone Name
    ,                         !- Space Name
    Outdoors,                 !- Outside Boundary Condition
    ,                         !- Outside Boundary Condition Object
    SunExposed,               !- Sun Exposure
    WindExposed,              !- Wind Exposure
    0.5,                      !- View Factor to Ground
    4,                        !- Number of Vertices
    11.876,                   !- Vertex 1 Xcoordinate
    11.456,                   !- Vertex 1 Ycoordinate
    8.431,                    !- Vertex 1 Zcoordinate
    11.876,                   !- Vertex 2 Xcoordinate
    11.456,                   !- Vertex 2 Ycoordinate
    2.811,                    !- Vertex 2 Zcoordinate
    11.842,                   !- Vertex 3 Xcoordinate
    11.299,                   !- Vertex 3 Ycoordinate
    2.811,                    !- Vertex 3 Zcoordinate
    11.842,                   !- Vertex 4 Xcoordinate
    11.299,                   !- Vertex 4 Ycoordinate
    8.431;                    !- Vertex 4 Zcoordinate

BUILDINGSURFACE:DETAILED,
    F_9,                      !- Name
    Wall,                     !- Surface Type
    C_F,                      !- Construction Name
    Zone_0599100000166829,    !- Zone Name
    ,                         !- Space Name
    Outdoors,                 !- Outside Boundary Condition
    ,                         !- Outside Boundary Condition Object
    SunExposed,               !- Sun Exposure
    WindExposed,              !- Wind Exposure
    0.5,                      !- View Factor to Ground
    4,                        !- Number of Vertices
    31.156,                   !- Vertex 1 Xcoordinate
    20.709,                   !- Vertex 1 Ycoordinate
    8.431,                    !- Vertex 1 Zcoordinate
    31.156,                   !- Vertex 2 Xcoordinate
    20.709,                   !- Vertex 2 Ycoordinate
    2.811,                    !- Vertex 2 Zcoordinate
    13.522,                   !- Vertex 3 Xcoordinate
    23.18,                    !- Vertex 3 Ycoordinate
    2.811,                    !- Vertex 3 Zcoordinate
    13.522,                   !- Vertex 4 Xcoordinate
    23.18,                    !- Vertex 4 Ycoordinate
    8.431;                    !- Vertex 4 Zcoordinate

BUILDINGSURFACE:DETAILED,
    F_10,                     !- Name
    Wall,                     !- Surface Type
    C_F,                      !- Construction Name
    Zone_0599100000166829,    !- Zone Name
    ,                         !- Space Name
    Outdoors,                 !- Outside Boundary Condition
    ,                         !- Outside Boundary Condition Object
    SunExposed,               !- Sun Exposure
    WindExposed,              !- Wind Exposure
    0.5,                      !- View Factor to Ground
    4,                        !- Number of Vertices
    13.522,                   !- Vertex 1 Xcoordinate
    23.18,                    !- Vertex 1 Ycoordinate
    8.431,                    !- Vertex 1 Zcoordinate
    13.522,                   !- Vertex 2 Xcoordinate
    23.18,                    !- Vertex 2 Ycoordinate
    2.811,                    !- Vertex 2 Zcoordinate
    13.501,                   !- Vertex 3 Xcoordinate
    23.025,                   !- Vertex 3 Ycoordinate
    2.811,                    !- Vertex 3 Zcoordinate
    13.501,                   !- Vertex 4 Xcoordinate
    23.025,                   !- Vertex 4 Ycoordinate
    8.431;                    !- Vertex 4 Zcoordinate

BUILDINGSURFACE:DETAILED,
    F_11,                     !- Name
    Wall,                     !- Surface Type
    C_F,                      !- Construction Name
    Zone_0599100000166829,    !- Zone Name
    ,                         !- Space Name
    Outdoors,                 !- Outside Boundary Condition
    ,                         !- Outside Boundary Condition Object
    SunExposed,               !- Sun Exposure
    WindExposed,              !- Wind Exposure
    0.5,                      !- View Factor to Ground
    4,                        !- Number of Vertices
    11.842,                   !- Vertex 1 Xcoordinate
    11.299,                   !- Vertex 1 Ycoordinate
    8.431,                    !- Vertex 1 Zcoordinate
    11.842,                   !- Vertex 2 Xcoordinate
    11.299,                   !- Vertex 2 Ycoordinate
    2.811,                    !- Vertex 2 Zcoordinate
    23.522,                   !- Vertex 3 Xcoordinate
    9.649,                    !- Vertex 3 Ycoordinate
    2.811,                    !- Vertex 3 Zcoordinate
    23.522,                   !- Vertex 4 Xcoordinate
    9.649,                    !- Vertex 4 Ycoordinate
    8.431;                    !- Vertex 4 Zcoordinate

BUILDINGSURFACE:DETAILED,
    F_12,                     !- Name
    Wall,                     !- Surface Type
    C_F,                      !- Construction Name
    Zone_0599100000166829,    !- Zone Name
    ,                         !- Space Name
    Outdoors,                 !- Outside Boundary Condition
    ,                         !- Outside Boundary Condition Object
    SunExposed,               !- Sun Exposure
    WindExposed,              !- Wind Exposure
    0.5,                      !- View Factor to Ground
    4,                        !- Number of Vertices
    23.522,                   !- Vertex 1 Xcoordinate
    9.649,                    !- Vertex 1 Ycoordinate
    8.431,                    !- Vertex 1 Zcoordinate
    23.522,                   !- Vertex 2 Xcoordinate
    9.649,                    !- Vertex 2 Ycoordinate
    2.811,                    !- Vertex 2 Zcoordinate
    22.763,                   !- Vertex 3 Xcoordinate
    4.2,                      !- Vertex 3 Ycoordinate
    2.811,                    !- Vertex 3 Zcoordinate
    22.763,                   !- Vertex 4 Xcoordinate
    4.2,                      !- Vertex 4 Ycoordinate
    8.431;                    !- Vertex 4 Zcoordinate

BUILDINGSURFACE:DETAILED,
    F_13,                     !- Name
    Wall,                     !- Surface Type
    C_F,                      !- Construction Name
    Zone_0599100000166829,    !- Zone Name
    ,                         !- Space Name
    Outdoors,                 !- Outside Boundary Condition
    ,                         !- Outside Boundary Condition Object
    SunExposed,               !- Sun Exposure
    WindExposed,              !- Wind Exposure
    0.5,                      !- View Factor to Ground
    4,                        !- Number of Vertices
    22.763,                   !- Vertex 1 Xcoordinate
    4.2,                      !- Vertex 1 Ycoordinate
    8.431,                    !- Vertex 1 Zcoordinate
    22.763,                   !- Vertex 2 Xcoordinate
    4.2,                      !- Vertex 2 Ycoordinate
    2.811,                    !- Vertex 2 Zcoordinate
    25.212,                   !- Vertex 3 Xcoordinate
    3.859,                    !- Vertex 3 Ycoordinate
    2.811,                    !- Vertex 3 Zcoordinate
    25.212,                   !- Vertex 4 Xcoordinate
    3.859,                    !- Vertex 4 Ycoordinate
    8.431;                    !- Vertex 4 Zcoordinate

BUILDINGSURFACE:DETAILED,
    F_14,                     !- Name
    Wall,                     !- Surface Type
    C_F,                      !- Construction Name
    Zone_0599100000166829,    !- Zone Name
    ,                         !- Space Name
    Outdoors,                 !- Outside Boundary Condition
    ,                         !- Outside Boundary Condition Object
    SunExposed,               !- Sun Exposure
    WindExposed,              !- Wind Exposure
    0.5,                      !- View Factor to Ground
    4,                        !- Number of Vertices
    25.212,                   !- Vertex 1 Xcoordinate