!- Windows Line endings 

Version,
    24.2;                     !- Version Identifier

SimulationControl,
    No,                       !- Do Zone Sizing Calculation
    No,                       !- Do System Sizing Calculation
    No,                       !- Do Plant Sizing Calculation
    No,                       !- Run Simulation for Sizing Periods
    Yes,                      !- Run Simulation for Weather File Run Periods
    No,                       !- Do HVAC Sizing Simulation for Sizing Periods
    1;                        !- Maximum Number of HVAC Sizing Simulation Passes

BUILDING,
    Pand.0599100000659442,    !- Name
    0,                        !- North Axis
    City,                     !- Terrain
    0.04,                     !- Loads Convergence Tolerance Value
    0.4,                      !- Temperature Convergence Tolerance Value
    FullExterior,             !- Solar Distribution
    25,                       !- Maximum Number of Warmup Days
    1;                        !- Minimum Number of Warmup Days

Timestep,
    6;                        !- Number of Timesteps per Hour

Site:Location,
    Rotterdam.The.Hague.AP_ZH_NLD Design_Conditions,    !- Name
    51.96,                    !- Latitude
    4.45,                     !- Longitude
    1,                        !- Time Zone
    -4.5;                     !- Elevation

RunPeriod,
    Run Period 1,             !- Name
    1,                        !- Begin Month
    1,                        !- Begin Day of Month
    ,                         !- Begin Year
    12,                       !- End Month
    31,                       !- End Day of Month
    ,                         !- End Year
    ,                         !- Day of Week for Start Day
    Yes,                      !- Use Weather File Holidays and Special Days
    Yes,                      !- Use Weather File Daylight Saving Period
    No,                       !- Apply Weekend Holiday Rule
    Yes,                      !- Use Weather File Rain Indicators
    Yes,                      !- Use Weather File Snow Indicators
    No,                       !- Treat Weather as Actual
    Hour24;                   !- First Hour Interpolation Starting Values

RunPeriodControl:DaylightSavingTime,
    Last Sunday in March,     !- Start Date
    Last Sunday in October;    !- End Date

SITE:GROUNDTEMPERATURE:BUILDINGSURFACE,
    18,                       !- January Ground Temperature
    18,                       !- February Ground Temperature
    18,                       !- March Ground Temperature
    18,                       !- April Ground Temperature
    18,                       !- May Ground Temperature
    18,                       !- June Ground Temperature
    18,                       !- July Ground Temperature
    18,                       !- August Ground Temperature
    18,                       !- September Ground Temperature
    18,                       !- October Ground Temperature
    18,                       !- November Ground Temperature
    18;                       !- December Ground Temperature

SCHEDULETYPELIMITS,
    Temperature,              !- Name
    -100,                     !- Lower Limit Value
    100,                      !- Upper Limit Value
    CONTINUOUS,               !- Numeric Type
    Temperature;              !- Unit Type

SCHEDULETYPELIMITS,
    Fraction,                 !- Name
    0,                        !- Lower Limit Value
    1,                        !- Upper Limit Value
    CONTINUOUS,               !- Numeric Type
    Dimensionless;            !- Unit Type

SCHEDULETYPELIMITS,
    Control Type,             !- Name
    0,                        !- Lower Limit Value
    4,                        !- Upper Limit Value
    DISCRETE,                 !- Numeric Type
    Dimensionless;            !- Unit Type

SCHEDULE:COMPACT,
    HeatingSetpoint_Zone_0599100000659442,    !- Name
    Temperature,              !- Schedule Type Limits Name
    Through: 12/31,           !- Field 1
    For: AllDays,             !- Field 2
    Until: 24:00,             !- Field 3
    21.0;                     !- Field 4

SCHEDULE:COMPACT,
    CoolingSetpoint_Zone_0599100000659442,    !- Name
    Temperature,              !- Schedule Type Limits Name
    Through: 12/31,           !- Field 1
    For: AllDays,             !- Field 2
    Until: 24:00,             !- Field 3
    24.0;                     !- Field 4

SCHEDULE:COMPACT,
    DualSetpointControlType,    !- Name
    Control Type,             !- Schedule Type Limits Name
    Through: 12/31,           !- Field 1
    For: AllDays,             !- Field 2
    Until: 24:00,             !- Field 3
    4;                        !- Field 4

SCHEDULE:COMPACT,
    AlwaysOn,                 !- Name
    Fraction,                 !- Schedule Type Limits Name
    Through: 12/31,           !- Field 1
    For: AllDays,             !- Field 2
    Until: 24:00,             !- Field 3
    1.0;                      !- Field 4

MATERIAL,
    G.D.1975-1991,            !- Name
    MediumSmooth,             !- Roughness
    0.15,                     !- Thickness
    2.884615e-01,             !- Conductivity
    540,                      !- Density
    1210,                     !- Specific Heat
    0.9,                      !- Thermal Absorptance
    0.7,                      !- Solar Absorptance
    0.7;                      !- Visible Absorptance

MATERIAL,
    F.D.1975-1991,            !- Name
    Rough,                    !- Roughness
    0.3,                      !- Thickness
    2.307692e-01,             !- Conductivity
    1920,                     !- Density
    840,                      !- Specific Heat
    0.9,                      !- Thermal Absorptance
    0.7,                      !- Solar Absorptance
    0.7;                      !- Visible Absorptance

MATERIAL,
    R.D.1975-1991,            !- Name
    MediumRough,              !- Roughness
    0.2,                      !- Thickness
    1.538462e-01,             !- Conductivity
    1500,                     !- Density
    1000,                     !- Specific Heat
    0.9,                      !- Thermal Absorptance
    0.7,                      !- Solar Absorptance
    0.7;                      !- Visible Absorptance

WINDOWMATERIAL:SIMPLEGLAZINGSYSTEM,
    W.D.1975-1991,            !- Name
    2.9,                      !- UFactor
    0.6,                      !- Solar Heat Gain Coefficient
    0.6;                      !- Visible Transmittance

CONSTRUCTION,
    C_G,                      !- Name
    G.D.1975-1991;            !- Outside Layer

CONSTRUCTION,
    C_F,                      !- Name
    F.D.1975-1991;            !- Outside Layer

CONSTRUCTION,
    C_R,                      !- Name
    R.D.1975-1991;            !- Outside Layer

GlobalGeometryRules,
    UpperLeftCorner,          !- Starting Vertex Position
    Counterclockwise,         !- Vertex Entry Direction
    World,                    !- Coordinate System
    World,                    !- Daylighting Reference Point Coordinate System
    Relative;                 !- Rectangular Surface Coordinate System

ZONE,
    Zone_0599100000659442,    !- Name
    0,                        !- Direction of Relative North
    0,                        !- X Origin
    0,                        !- Y Origin
    0,                        !- Z Origin
    1,                        !- Type
    1,                        !- Multiplier
    Autocalculate,            !- Ceiling Height
    Autocalculate,            !- Volume
    autocalculate,            !- Floor Area
    ,                         !- Zone Inside Convection Algorithm
    ,                         !- Zone Outside Convection Algorithm
    Yes;                      !- Part of Total Floor Area

BUILDINGSURFACE:DETAILED,
    G_0,                      !- Name
    Floor,                    !- Surface Type
    C_G,                      !- Construction Name
    Zone_0599100000659442,    !- Zone Name
    ,                         !- Space Name
    Ground,                   !- Outside Boundary Condition
    ,                         !- Outside Boundary Condition Object
    SunExposed,               !- Sun Exposure
    WindExposed,              !- Wind Exposure
    0.5,                      !- View Factor to Ground
    22,                       !- Number of Vertices
    1.525,                    !- Vertex 1 Xcoordinate
    21.52,                    !- Vertex 1 Ycoordinate
    3.872,                    !- Vertex 1 Zcoordinate
    1.312,                    !- Vertex 2 Xcoordinate
    22.491,                   !- Vertex 2 Ycoordinate
    3.872,                    !- Vertex 2 Zcoordinate
    1.328,                    !- Vertex 3 Xcoordinate
    22.561,                   !- Vertex 3 Ycoordinate
    3.872,                    !- Vertex 3 Zcoordinate
    0.489,                    !- Vertex 4 Xcoordinate
    26.253,                   !- Vertex 4 Ycoordinate
    3.872,                    !- Vertex 4 Zcoordinate
    0.304,                    !- Vertex 5 Xcoordinate
    27.099,                   !- Vertex 5 Ycoordinate
    3.872,                    !- Vertex 5 Zcoordinate
    1.672,                    !- Vertex 6 Xcoordinate
    27.396,                   !- Vertex 6 Ycoordinate
    3.872,                    !- Vertex 6 Zcoordinate
    2.333,                    !- Vertex 7 Xcoordinate
    28.39,                    !- Vertex 7 Ycoordinate
    3.872,                    !- Vertex 7 Zcoordinate
    4.08,                     !- Vertex 8 Xcoordinate
    28.743,                   !- Vertex 8 Ycoordinate
    3.872,                    !- Vertex 8 Zcoordinate
    5.31,                     !- Vertex 9 Xcoordinate
    28.188,                   !- Vertex 9 Ycoordinate
    3.872,                    !- Vertex 9 Zcoordinate
    8.885,                    !- Vertex 10 Xcoordinate
    28.964,                   !- Vertex 10 Ycoordinate
    3.872,                    !- Vertex 10 Zcoordinate
    9.643,                    !- Vertex 11 Xcoordinate
    25.4,                     !- Vertex 11 Ycoordinate
    3.872,                    !- Vertex 11 Zcoordinate
    11.054,                   !- Vertex 12 Xcoordinate
    25.71,                    !- Vertex 12 Ycoordinate
    3.872,                    !- Vertex 12 Zcoordinate
    12.893,                   !- Vertex 13 Xcoordinate
    17.2,                     !- Vertex 13 Ycoordinate
    3.872,                    !- Vertex 13 Zcoordinate
    17.583,                   !- Vertex 14 Xcoordinate
    18.21,                    !- Vertex 14 Ycoordinate
    3.872,                    !- Vertex 14 Zcoordinate
    21.031,                   !- Vertex 15 Xcoordinate
    2.224,                    !- Vertex 15 Ycoordinate
    3.872,                    !- Vertex 15 Zcoordinate
    10.893,                   !- Vertex 16 Xcoordinate
    0,                        !- Vertex 16 Ycoordinate
    3.872,                    !- Vertex 16 Zcoordinate
    7.414,                    !- Vertex 17 Xcoordinate
    16.05,                    !- Vertex 17 Ycoordinate
    3.872,                    !- Vertex 17 Zcoordinate
    2.737,                    !- Vertex 18 Xcoordinate
    14.985,                   !- Vertex 18 Ycoordinate
    3.872,                    !- Vertex 18 Zcoordinate
    1.049,                    !- Vertex 19 Xcoordinate
    16.223,                   !- Vertex 19 Ycoordinate
    3.872,                    !- Vertex 19 Zcoordinate
    0.104,                    !- Vertex 20 Xcoordinate
    20.638,                   !- Vertex 20 Ycoordinate
    3.872,                    !- Vertex 20 Zcoordinate
    0.173,                    !- Vertex 21 Xcoordinate
    20.649,                   !- Vertex 21 Ycoordinate
    3.872,                    !- Vertex 21 Zcoordinate
    0.068,                    !- Vertex 22 Xcoordinate
    21.138,                   !- Vertex 22 Ycoordinate
    3.872;                    !- Vertex 22 Zcoordinate

BUILDINGSURFACE:DETAILED,
    F_1,                      !- Name
    Wall,                     !- Surface Type
    C_F,                      !- Construction Name
    Zone_0599100000659442,    !- Zone Name
    ,                         !- Space Name
    Outdoors,                 !- Outside Boundary Condition
    ,                         !- Outside Boundary Condition Object
    SunExposed,               !- Sun Exposure
    WindExposed,              !- Wind Exposure
    0.5,                      !- View Factor to Ground
    4,                        !- Number of Vertices
    7.414,                    !- Vertex 1 Xcoordinate
    16.05,                    !- Vertex 1 Ycoordinate
    9.893,                    !- Vertex 1 Zcoordinate
    7.414,                    !- Vertex 2 Xcoordinate
    16.05,                    !- Vertex 2 Ycoordinate
    3.872,                    !- Vertex 2 Zcoordinate
    10.893,                   !- Vertex 3 Xcoordinate
    0,                        !- Vertex 3 Ycoordinate
    3.872,                    !- Vertex 3 Zcoordinate
    10.893,                   !- Vertex 4 Xcoordinate
    0,                        !- Vertex 4 Ycoordinate
    9.893;                    !- Vertex 4 Zcoordinate

BUILDINGSURFACE:DETAILED,
    F_2,                      !- Name
    Wall,                     !- Surface Type
    C_F,                      !- Construction Name
    Zone_0599100000659442,    !- Zone Name
    ,                         !- Space Name
    Outdoors,                 !- Outside Boundary Condition
    ,                         !- Outside Boundary Condition Object
    SunExposed,               !- Sun Exposure
    WindExposed,              !- Wind Exposure
    0.5,                      !- View Factor to Ground
    4,                        !- Number of Vertices
    2.737,                    !- Vertex 1 Xcoordinate
    14.985,                   !- Vertex 1 Ycoordinate
    9.893,                    !- Vertex 1 Zcoordinate
    2.737,                    !- Vertex 2 Xcoordinate
    14.985,                   !- Vertex 2 Ycoordinate
    3.872,                    !- Vertex 2 Zcoordinate
    7.414,                    !- Vertex 3 Xcoordinate
    16.05,                    !- Vertex 3 Ycoordinate
    3.872,                    !- Vertex 3 Zcoordinate
    7.414,                    !- Vertex 4 Xcoordinate
    16.05,                    !- Vertex 4 Ycoordinate
    9.893;                    !- Vertex 4 Zcoordinate

BUILDINGSURFACE:DETAILED,
    F_3,                      !- Name
    Wall,                     !- Surface Type
    C_F,                      !- Construction Name
    Zone_0599100000659442,    !- Zone Name
    ,                         !- Space Name
    Outdoors,                 !- Outside Boundary Condition
    ,                         !- Outside Boundary Condition Object
    SunExposed,               !- Sun Exposure
    WindExposed,              !- Wind Exposure
    0.5,                      !- View Factor to Ground
    4,                        !- Number of Vertices
    12.893,                   !- Vertex 1 Xcoordinate
    17.2,                     !- Vertex 1 Ycoordinate
    9.893,                    !- Vertex 1 Zcoordinate
    12.893,                   !- Vertex 2 Xcoordinate
    17.2,                     !- Vertex 2 Ycoordinate
    3.872,                    !- Vertex 2 Zcoordinate
    11.054,                   !- Vertex 3 Xcoordinate
    25.71,                    !- Vertex 3 Ycoordinate
    3.872,                    !- Vertex 3 Zcoordinate
    11.054,                   !- Vertex 4 Xcoordinate
    25.71,                    !- Vertex 4 Ycoordinate
    9.893;                    !- Vertex 4 Zcoordinate

BUILDINGSURFACE:DETAILED,
    F_4,                      !- Name
    Wall,                     !- Surface Type
    C_F,                      !- Construction Name
    Zone_0599100000659442,    !- Zone Name
    ,                         !- Space Name
    Outdoors,                 !- Outside Boundary Condition
    ,                         !- Outside Boundary Condition Object
    SunExposed,               !- Sun Exposure
    WindExposed,              !- Wind Exposure
    0.5,                      !- View Factor to Ground
    4,                        !- Number of Vertices
    10.893,                   !- Vertex 1 Xcoordinate
    0,                        !- Vertex 1 Ycoordinate
    9.893,                    !- Vertex 1 Zcoordinate
    10.893,                   !- Vertex 2 Xcoordinate
    0,                        !- Vertex 2 Ycoordinate
    3.872,                    !- Vertex 2 Zcoordinate
    21.031,                   !- Vertex 3 Xcoordinate
    2.224,                    !- Vertex 3 Ycoordinate
    3.872,                    !- Vertex 3 Zcoordinate
    21.031,                   !- Vertex 4 Xcoordinate
    2.224,                    !- Vertex 4 Ycoordinate
    9.893;                    !- Vertex 4 Zcoordinate

BUILDINGSURFACE:DETAILED,
    F_5,                      !- Name
    Wall,                     !- Surface Type
    C_F,                      !- Construction Name
    Zone_0599100000659442,    !- Zone Name
    ,                         !- Space Name
    Outdoors,                 !- Outside Boundary Condition
    ,                         !- Outside Boundary Condition Object
    SunExposed,               !- Sun Exposure
    WindExposed,              !- Wind Exposure
    0.5,                      !- View Factor to Ground
    4,                        !- Number of Vertices
    21.031,                   !- Vertex 1 Xcoordinate
    2.224,                    !- Vertex 1 Ycoordinate
    9.893,                    !- Vertex 1 Zcoordinate
    21.031,                   !- Vertex 2 Xcoordinate
    2.224,                    !- Vertex 2 Ycoordinate
    3.872,                    !- Vertex 2 Zcoordinate
    17.583,                   !- Vertex 3 Xcoordinate
    18.21,                    !- Vertex 3 Ycoordinate
    3.872,                    !- Vertex 3 Zcoordinate
    17.583,                   !- Vertex 4 Xcoordinate
    18.21,                    !- Vertex 4 Ycoordinate
    9.893;                    !- Vertex 4 Zcoordinate

BUILDINGSURFACE:DETAILED,
    F_6,                      !- Name
    Wall,                     !- Surface Type
    C_F,                      !- Construction Name
    Zone_0599100000659442,    !- Zone Name
    ,                         !- Space Name
    Outdoors,                 !- Outside Boundary Condition
    ,                         !- Outside Boundary Condition Object
    SunExposed,               !- Sun Exposure
    WindExposed,              !- Wind Exposure
    0.5,                      !- View Factor to Ground
    4,                        !- Number of Vertices
    17.583,                   !- Vertex 1 Xcoordinate
    18.21,                    !- Vertex 1 Ycoordinate
    9.893,                    !- Vertex 1 Zcoordinate
    17.583,                   !- Vertex 2 Xcoordinate
    18.21,                    !- Vertex 2 Ycoordinate
    3.872,                    !- Vertex 2 Zcoordinate
    12.893,                   !- Vertex 3 Xcoordinate
    17.2,                     !- Vertex 3 Ycoordinate
    3.872,                    !- Vertex 3 Zcoordinate
    12.893,                   !- Vertex 4 Xcoordinate
    17.2,                     !- Vertex 4 Ycoordinate
    9.893;                    !- Vertex 4 Zcoordinate

BUILDINGSURFACE:DETAILED,
    F_7,                      !- Name
    Wall,                     !- Surface Type
    C_F,                      !- Construction Name
    Zone_0599100000659442,    !- Zone Name
    ,                         !- Space Name
    Outdoors,                 !- Outside Boundary Condition
    ,                         !- Outside Boundary Condition Object
    SunExposed,               !- Sun Exposure
    WindExposed,              !- Wind Exposure
    0.5,                      !- View Factor to Ground
    4,                        !- Number of Vertices
    9.643,                    !- Vertex 1 Xcoordinate
    25.4,                     !- Vertex 1 Ycoordinate
    9.893,                    !- Vertex 1 Zcoordinate
    9.643,                    !- Vertex 2 Xcoordinate
    25.4,                     !- Vertex 2 Ycoordinate
    3.872,                    !- Vertex 2 Zcoordinate
    8.885,                    !- Vertex 3 Xcoordinate
    28.964,                   !- Vertex 3 Ycoordinate
    3.872,                    !- Vertex 3 Zcoordinate
    8.885,                    !- Vertex 4 Xcoordinate
    28.964,                   !- Vertex 4 Ycoordinate
    9.893;                    !- Vertex 4 Zcoordinate

BUILDINGSURFACE:DETAILED,
    F_8,                      !- Name
    Wall,                     !- Surface Type
    C_F,                      !- Construction Name
    Zone_0599100000659442,    !- Zone Name
    ,                         !- Space Name
    Outdoors,                 !- Outside Boundary Condition
    ,                         !- Outside Boundary Condition Object
    SunExposed,               !- Sun Exposure
    WindExposed,              !- Wind Exposure
    0.5,                      !- View Factor to Ground
    4,                        !- Number of Vertices
    8.885,                    !- Vertex 1 Xcoordinate
    28.964,                   !- Vertex 1 Ycoordinate
    9.893,                    !- Vertex 1 Zcoordinate
    8.885,                    !- Vertex 2 Xcoordinate
    28.964,                   !- Vertex 2 Ycoordinate
    3.872,                    !- Vertex 2 Zcoordinate
    5.31,                     !- Vertex 3 Xcoordinate
    28.188,                   !- Vertex 3 Ycoordinate
    3.872,                    !- Vertex 3 Zcoordinate
    5.31,                     !- Vertex 4 Xcoordinate
    28.188,                   !- Vertex 4 Ycoordinate
    9.893;                    !- Vertex 4 Zcoordinate

BUILDINGSURFACE:DETAILED,
    F_9,                      !- Name
    Wall,                     !- Surface Type
    C_F,                      !- Construction Name
    Zone_0599100000659442,    !- Zone Name
    ,                         !- Space Name
    Outdoors,                 !- Outside Boundary Condition
    ,                         !- Outside Boundary Condition Object
    SunExposed,               !- Sun Exposure
    WindExposed,              !- Wind Exposure
    0.5,                      !- View Factor to Ground
    4,                        !- Number of Vertices
    11.054,                   !- Vertex 1 Xcoordinate
    25.71,                    !- Vertex 1 Ycoordinate
    9.893,                    !- Vertex 1 Zcoordinate
    11.054,                   !- Vertex 2 Xcoordinate
    25.71,                    !- Vertex 2 Ycoordinate
    3.872,                    !- Vertex 2 Zcoordinate
    9.643,                    !- Vertex 3 Xcoordinate
    25.4,                     !- Vertex 3 Ycoordinate
    3.872,                    !- Vertex 3 Zcoordinate
    9.643,                    !- Vertex 4 Xcoordinate
    25.4,                     !- Vertex 4 Ycoordinate
    9.893;                    !- Vertex 4 Zcoordinate

BUILDINGSURFACE:DETAILED,
    F_10,                     !- Name
    Wall,                     !- Surface Type
    C_F,                      !- Construction Name
    Zone_0599100000659442,    !- Zone Name
    ,                         !- Space Name
    Outdoors,                 !- Outside Boundary Condition
    ,                         !- Outside Boundary Condition Object
    SunExposed,               !- Sun Exposure
    WindExposed,              !- Wind Exposure
    0.5,                      !- View Factor to Ground
    4,                        !- Number of Vertices
    5.31,                     !- Vertex 1 Xcoordinate
    28.188,                   !- Vertex 1 Ycoordinate
    9.893,                    !- Vertex 1 Zcoordinate
    5.31,                     !- Vertex 2 Xcoordinate
    28.188,                   !- Vertex 2 Ycoordinate
    3.872,                    !- Vertex 2 Zcoordinate
    4.08,                     !- Vertex 3 Xcoordinate
    28.743,                   !- Vertex 3 Ycoordinate
    3.872,                    !- Vertex 3 Zcoordinate
    4.08,                     !- Vertex 4 Xcoordinate
    28.743,                   !- Vertex 4 Ycoordinate
    9.893;                    !- Vertex 4 Zcoordinate

BUILDINGSURFACE:DETAILED,
    F_11,                     !- Name
    Wall,                     !- Surface Type
    C_F,                      !- Construction Name
    Zone_0599100000659442,    !- Zone Name
    ,                         !- Space Name
    Outdoors,                 !- Outside Boundary Condition
    ,                         !- Outside Boundary Condition Object
    SunExposed,               !- Sun Exposure
    WindExposed,              !- Wind Exposure
    0.5,                      !- View Factor to Ground
    4,                        !- Number of Vertices
    1.312,                    !- Vertex 1 Xcoordinate
    22.491,                   !- Vertex 1 Ycoordinate
    9.893,                    !- Vertex 1 Zcoordinate
    1.312,                    !- Vertex 2 Xcoordinate
    22.491,                   !- Vertex 2 Ycoordinate
    3.872,                    !- Vertex 2 Zcoordinate
    1.525,                    !- Vertex 3 Xcoordinate
    21.52,                    !- Vertex 3 Ycoordinate
    3.872,                    !- Vertex 3 Zcoordinate
    1.525,                    !- Vertex 4 Xcoordinate
    21.52,                    !- Vertex 4 Ycoordinate
    9.893;                    !- Vertex 4 Zcoordinate

BUILDINGSURFACE:DETAILED,
    F_12,                     !- Name
    Wall,                     !- Surface Type
    C_F,                      !- Construction Name
    Zone_0599100000659442,    !- Zone Name
    ,                         !- Space Name
    Outdoors,                 !- Outside Boundary Condition
    ,                         !- Outside Boundary Condition Object
    SunExposed,               !- Sun Exposure
    WindExposed,              !- Wind Exposure
    0.5,                      !- View Factor to Ground
    4,                        !- Number of Vertices
    1.328,                    !- Vertex 1 Xcoordinate
    22.561,                   !- Vertex 1 Ycoordinate
    9.893,                    !- Vertex 1 Zcoordinate
    1.328,                    !- Vertex 2 Xcoordinate
    22.561,                   !- Vertex 2 Ycoordinate
    3.872,                    !- Vertex 2 Zcoordinate
    1.312,                    !- Vertex 3 Xcoordinate
    22.491,                   !- Vertex 3 Ycoordinate
    3.872,                    !- Vertex 3 Zcoordinate
    1.312,                    !- Vertex 4 Xcoordinate
    22.491,                   !- Vertex 4 Ycoordinate
    9.893;                    !- Vertex 4 Zcoordinate

BUILDINGSURFACE:DETAILED,
    F_13,                     !- Name
    Wall,                     !- Surface Type
    C_F,                      !- Construction Name
    Zone_0599100000659442,    !- Zone Name
    ,                         !- Space Name
    Outdoors,                 !- Outside Boundary Condition
    ,                         !- Outside Boundary Condition Object
    SunExposed,               !- Sun Exposure
    WindExposed,              !- Wind Exposure
    0.5,                      !- View Factor to Ground
    4,                        !- Number of Vertices
    4.08,                     !- Vertex 1 Xcoordinate
    28.743,                   !- Vertex 1 Ycoordinate
    9.893,                    !- Vertex 1 Zcoordinate
    4.08,                     !- Vertex 2 Xcoordinate
    28.743,                   !- Vertex 2 Ycoordinate
    3.872,                    !- Vertex 2 Zcoordinate
    2.333,                    !- Vertex 3 Xcoordinate
    28.39,                    !- Vertex 3 Ycoordinate
    3.872,                    !- Vertex 3 Zcoordinate
    2.333,                    !- Vertex 4 Xcoordinate
    28.39,                    !- Vertex 4 Ycoordinate
    9.893;                    !- Vertex 4 Zcoordinate

BUILDINGSURFACE:DETAILED,
    F_14,                     !- Name
    Wall,                     !- Surface Type
    C_F,                      !- Construction Name
    Zone_0599100000659442,    !- Zone Name
    ,                         !- Space Name
    Outdoors,                 !- Outside Boundary Condition
    ,                         !- Outside Boundary Condition Object
    SunExposed,               !- Sun Exposure
    WindExposed,              !- Wind Exposure
    0.5,                      !- View Factor to Ground
    4,                        !- Number of Vertices
    2.333,                    !- Vertex 1 Xcoordinate
    28.39,                    !- Vertex 1 Ycoordinate
    9.893,                    !- Vertex 1 Zcoordinate
    2.333,                    !- Vertex 2 Xcoordinate
    28.39,                    !- Vertex 2 Ycoordinate
    3.872,                    !- Vertex 2 Zcoordinate
    1.672,                    !- Vertex 3 Xcoordinate
    27.396,                   !- Vertex 3 Ycoordinate
    3.872,                    !- Vertex 3 Zcoordinate
    1.672,                    !- Vertex 4 Xcoordinate
    27.396,                   !- Vertex 4 Ycoordinate
    9.893;                    !- Vertex 4 Zcoordinate

BUILDINGSURFACE:DETAILED,
    F_15,                     !- Name
    Wall,                     !- Surface Type
    C_F,                      !- Construction Name
    Zone_0599100000659442,    !- Zone Name
    ,                         !- Space Name
    Outdoors,                 !- Outside Boundary Condition
    ,                         !- Outside Boundary Condition Object
    SunExposed,               !- Sun Exposure
    WindExposed,              !- Wind Exposure
    0.5,                      !- View Factor to Ground
    4,                        !- Number of Vertices
    1.525,                    !- Vertex 1 Xcoordinate
    21.52,                    !- Vertex 1 Ycoordinate
    9.893,                    !- Vertex 1 Zcoordinate
    1.525,                    !- Vertex 2 Xcoordinate
    21.52,                    !- Vertex 2 Ycoordinate