!- Windows Line endings 

Version,
    24.2;                     !- Version Identifier

SimulationControl,
    No,                       !- Do Zone Sizing Calculation
    No,                       !- Do System Sizing Calculation
    No,                       !- Do Plant Sizing Calculation
    No,                       !- Run Simulation for Sizing Periods
    Yes,                      !- Run Simulation for Weather File Run Periods
    No,                       !- Do HVAC Sizing Simulation for Sizing Periods
    1;                        !- Maximum Number of HVAC Sizing Simulation Passes

BUILDING,
    Pand.0599100000051922,    !- Name
    0,                        !- North Axis
    City,                     !- Terrain
    0.04,                     !- Loads Convergence Tolerance Value
    0.4,                      !- Temperature Convergence Tolerance Value
    FullExterior,             !- Solar Distribution
    25,                       !- Maximum Number of Warmup Days
    1;                        !- Minimum Number of Warmup Days

Timestep,
    6;                        !- Number of Timesteps per Hour

Site:Location,
    Rotterdam.The.Hague.AP_ZH_NLD Design_Conditions,    !- Name
    51.96,                    !- Latitude
    4.45,                     !- Longitude
    1,                        !- Time Zone
    -4.5;                     !- Elevation

RunPeriod,
    Run Period 1,             !- Name
    1,                        !- Begin Month
    1,                        !- Begin Day of Month
    ,                         !- Begin Year
    12,                       !- End Month
    31,                       !- End Day of Month
    ,                         !- End Year
    ,                         !- Day of Week for Start Day
    Yes,                      !- Use Weather File Holidays and Special Days
    Yes,                      !- Use Weather File Daylight Saving Period
    No,                       !- Apply Weekend Holiday Rule
    Yes,                      !- Use Weather File Rain Indicators
    Yes,                      !- Use Weather File Snow Indicators
    No,                       !- Treat Weather as Actual
    Hour24;                   !- First Hour Interpolation Starting Values

RunPeriodControl:DaylightSavingTime,
    Last Sunday in March,     !- Start Date
    Last Sunday in October;    !- End Date

SITE:GROUNDTEMPERATURE:BUILDINGSURFACE,
    18,                       !- January Ground Temperature
    18,                       !- February Ground Temperature
    18,                       !- March Ground Temperature
    18,                       !- April Ground Temperature
    18,                       !- May Ground Temperature
    18,                       !- June Ground Temperature
    18,                       !- July Ground Temperature
    18,                       !- August Ground Temperature
    18,                       !- September Ground Temperature
    18,                       !- October Ground Temperature
    18,                       !- November Ground Temperature
    18;                       !- December Ground Temperature

SCHEDULETYPELIMITS,
    Temperature,              !- Name
    -100,                     !- Lower Limit Value
    100,                      !- Upper Limit Value
    CONTINUOUS,               !- Numeric Type
    Temperature;              !- Unit Type

SCHEDULETYPELIMITS,
    Fraction,                 !- Name
    0,                        !- Lower Limit Value
    1,                        !- Upper Limit Value
    CONTINUOUS,               !- Numeric Type
    Dimensionless;            !- Unit Type

SCHEDULETYPELIMITS,
    Control Type,             !- Name
    0,                        !- Lower Limit Value
    4,                        !- Upper Limit Value
    DISCRETE,                 !- Numeric Type
    Dimensionless;            !- Unit Type

SCHEDULE:COMPACT,
    HeatingSetpoint_Zone_0599100000051922,    !- Name
    Temperature,              !- Schedule Type Limits Name
    Through: 12/31,           !- Field 1
    For: AllDays,             !- Field 2
    Until: 24:00,             !- Field 3
    21.0;                     !- Field 4

SCHEDULE:COMPACT,
    CoolingSetpoint_Zone_0599100000051922,    !- Name
    Temperature,              !- Schedule Type Limits Name
    Through: 12/31,           !- Field 1
    For: AllDays,             !- Field 2
    Until: 24:00,             !- Field 3
    24.0;                     !- Field 4

SCHEDULE:COMPACT,
    DualSetpointControlType,    !- Name
    Control Type,             !- Schedule Type Limits Name
    Through: 12/31,           !- Field 1
    For: AllDays,             !- Field 2
    Until: 24:00,             !- Field 3
    4;                        !- Field 4

SCHEDULE:COMPACT,
    AlwaysOn,                 !- Name
    Fraction,                 !- Schedule Type Limits Name
    Through: 12/31,           !- Field 1
    For: AllDays,             !- Field 2
    Until: 24:00,             !- Field 3
    1.0;                      !- Field 4

MATERIAL,
    G.D.1965,                 !- Name
    MediumSmooth,             !- Roughness
    0.15,                     !- Thickness
    1,                        !- Conductivity
    540,                      !- Density
    1210,                     !- Specific Heat
    0.9,                      !- Thermal Absorptance
    0.7,                      !- Solar Absorptance
    0.7;                      !- Visible Absorptance

MATERIAL,
    F.D.1965,                 !- Name
    Rough,                    !- Roughness
    0.3,                      !- Thickness
    0.8571428571428572,       !- Conductivity
    1920,                     !- Density
    840,                      !- Specific Heat
    0.9,                      !- Thermal Absorptance
    0.7,                      !- Solar Absorptance
    0.7;                      !- Visible Absorptance

MATERIAL,
    R.D.1965,                 !- Name
    MediumRough,              !- Roughness
    0.2,                      !- Thickness
    0.08,                     !- Conductivity
    1500,                     !- Density
    1000,                     !- Specific Heat
    0.9,                      !- Thermal Absorptance
    0.7,                      !- Solar Absorptance
    0.7;                      !- Visible Absorptance

WINDOWMATERIAL:SIMPLEGLAZINGSYSTEM,
    W.D.1965,                 !- Name
    1.8,                      !- UFactor
    0.4,                      !- Solar Heat Gain Coefficient
    0.6;                      !- Visible Transmittance

CONSTRUCTION,
    C_G,                      !- Name
    G.D.1965;                 !- Outside Layer

CONSTRUCTION,
    C_F,                      !- Name
    F.D.1965;                 !- Outside Layer

CONSTRUCTION,
    C_R,                      !- Name
    R.D.1965;                 !- Outside Layer

GlobalGeometryRules,
    UpperLeftCorner,          !- Starting Vertex Position
    Counterclockwise,         !- Vertex Entry Direction
    World,                    !- Coordinate System
    World,                    !- Daylighting Reference Point Coordinate System
    Relative;                 !- Rectangular Surface Coordinate System

ZONE,
    Zone_0599100000051922,    !- Name
    0,                        !- Direction of Relative North
    0,                        !- X Origin
    0,                        !- Y Origin
    0,                        !- Z Origin
    1,                        !- Type
    1,                        !- Multiplier
    Autocalculate,            !- Ceiling Height
    Autocalculate,            !- Volume
    autocalculate,            !- Floor Area
    ,                         !- Zone Inside Convection Algorithm
    ,                         !- Zone Outside Convection Algorithm
    Yes;                      !- Part of Total Floor Area

BUILDINGSURFACE:DETAILED,
    G_0,                      !- Name
    Floor,                    !- Surface Type
    C_G,                      !- Construction Name
    Zone_0599100000051922,    !- Zone Name
    ,                         !- Space Name
    Ground,                   !- Outside Boundary Condition
    ,                         !- Outside Boundary Condition Object
    SunExposed,               !- Sun Exposure
    WindExposed,              !- Wind Exposure
    0.5,                      !- View Factor to Ground
    28,                       !- Number of Vertices
    13.24,                    !- Vertex 1 Xcoordinate
    7.229,                    !- Vertex 1 Ycoordinate
    0,                        !- Vertex 1 Zcoordinate
    12.791,                   !- Vertex 2 Xcoordinate
    6.099,                    !- Vertex 2 Ycoordinate
    0,                        !- Vertex 2 Zcoordinate
    12.99,                    !- Vertex 3 Xcoordinate
    6.019,                    !- Vertex 3 Ycoordinate
    0,                        !- Vertex 3 Zcoordinate
    12.761,                   !- Vertex 4 Xcoordinate
    5.449,                    !- Vertex 4 Ycoordinate
    0,                        !- Vertex 4 Zcoordinate
    12.56,                    !- Vertex 5 Xcoordinate
    5.53,                     !- Vertex 5 Ycoordinate
    0,                        !- Vertex 5 Zcoordinate
    12.09,                    !- Vertex 6 Xcoordinate
    4.34,                     !- Vertex 6 Ycoordinate
    0,                        !- Vertex 6 Zcoordinate
    12.291,                   !- Vertex 7 Xcoordinate
    4.259,                    !- Vertex 7 Ycoordinate
    0,                        !- Vertex 7 Zcoordinate
    12.06,                    !- Vertex 8 Xcoordinate
    3.69,                     !- Vertex 8 Ycoordinate
    0,                        !- Vertex 8 Zcoordinate
    11.87,                    !- Vertex 9 Xcoordinate
    3.769,                    !- Vertex 9 Ycoordinate
    0,                        !- Vertex 9 Zcoordinate
    11.43,                    !- Vertex 10 Xcoordinate
    2.669,                    !- Vertex 10 Ycoordinate
    0,                        !- Vertex 10 Zcoordinate
    9.361,                    !- Vertex 11 Xcoordinate
    3.5,                      !- Vertex 11 Ycoordinate
    0,                        !- Vertex 11 Zcoordinate
    8.12,                     !- Vertex 12 Xcoordinate
    0.4,                      !- Vertex 12 Ycoordinate
    0,                        !- Vertex 12 Zcoordinate
    4.62,                     !- Vertex 13 Xcoordinate
    1.799,                    !- Vertex 13 Ycoordinate
    0,                        !- Vertex 13 Zcoordinate
    3.9,                      !- Vertex 14 Xcoordinate
    0,                        !- Vertex 14 Ycoordinate
    0,                        !- Vertex 14 Zcoordinate
    0.648,                    !- Vertex 15 Xcoordinate
    1.292,                    !- Vertex 15 Ycoordinate
    0,                        !- Vertex 15 Zcoordinate
    0.491,                    !- Vertex 16 Xcoordinate
    2.783,                    !- Vertex 16 Ycoordinate
    0,                        !- Vertex 16 Zcoordinate
    0.72,                     !- Vertex 17 Xcoordinate
    3.359,                    !- Vertex 17 Ycoordinate
    0,                        !- Vertex 17 Zcoordinate
    0.418,                    !- Vertex 18 Xcoordinate
    3.479,                    !- Vertex 18 Ycoordinate
    0,                        !- Vertex 18 Zcoordinate
    0.363,                    !- Vertex 19 Xcoordinate
    4.001,                    !- Vertex 19 Ycoordinate
    0,                        !- Vertex 19 Zcoordinate
    4.46,                     !- Vertex 20 Xcoordinate
    14.28,                    !- Vertex 20 Ycoordinate
    0,                        !- Vertex 20 Zcoordinate
    4.99,                     !- Vertex 21 Xcoordinate
    14.069,                   !- Vertex 21 Ycoordinate
    0,                        !- Vertex 21 Zcoordinate
    5.53,                     !- Vertex 22 Xcoordinate
    15.41,                    !- Vertex 22 Ycoordinate
    0,                        !- Vertex 22 Zcoordinate
    9.421,                    !- Vertex 23 Xcoordinate
    13.859,                   !- Vertex 23 Ycoordinate
    0,                        !- Vertex 23 Zcoordinate
    8.881,                    !- Vertex 24 Xcoordinate
    12.509,                   !- Vertex 24 Ycoordinate
    0,                        !- Vertex 24 Zcoordinate
    13.421,                   !- Vertex 25 Xcoordinate
    10.71,                    !- Vertex 25 Ycoordinate
    0,                        !- Vertex 25 Zcoordinate
    12.201,                   !- Vertex 26 Xcoordinate
    7.65,                     !- Vertex 26 Ycoordinate
    0,                        !- Vertex 26 Zcoordinate
    13.108,                   !- Vertex 27 Xcoordinate
    7.283,                    !- Vertex 27 Ycoordinate
    0,                        !- Vertex 27 Zcoordinate
    13.162,                   !- Vertex 28 Xcoordinate
    7.261,                    !- Vertex 28 Ycoordinate
    0;                        !- Vertex 28 Zcoordinate

BUILDINGSURFACE:DETAILED,
    F_1,                      !- Name
    Wall,                     !- Surface Type
    C_F,                      !- Construction Name
    Zone_0599100000051922,    !- Zone Name
    ,                         !- Space Name
    Outdoors,                 !- Outside Boundary Condition
    ,                         !- Outside Boundary Condition Object
    SunExposed,               !- Sun Exposure
    WindExposed,              !- Wind Exposure
    0.5,                      !- View Factor to Ground
    4,                        !- Number of Vertices
    12.291,                   !- Vertex 1 Xcoordinate
    4.259,                    !- Vertex 1 Ycoordinate
    10.013,                   !- Vertex 1 Zcoordinate
    12.291,                   !- Vertex 2 Xcoordinate
    4.259,                    !- Vertex 2 Ycoordinate
    0,                        !- Vertex 2 Zcoordinate
    12.09,                    !- Vertex 3 Xcoordinate
    4.34,                     !- Vertex 3 Ycoordinate
    0,                        !- Vertex 3 Zcoordinate
    12.09,                    !- Vertex 4 Xcoordinate
    4.34,                     !- Vertex 4 Ycoordinate
    10.013;                   !- Vertex 4 Zcoordinate

BUILDINGSURFACE:DETAILED,
    F_2,                      !- Name
    Wall,                     !- Surface Type
    C_F,                      !- Construction Name
    Zone_0599100000051922,    !- Zone Name
    ,                         !- Space Name
    Outdoors,                 !- Outside Boundary Condition
    ,                         !- Outside Boundary Condition Object
    SunExposed,               !- Sun Exposure
    WindExposed,              !- Wind Exposure
    0.5,                      !- View Factor to Ground
    4,                        !- Number of Vertices
    0.72,                     !- Vertex 1 Xcoordinate
    3.359,                    !- Vertex 1 Ycoordinate
    10.013,                   !- Vertex 1 Zcoordinate
    0.72,                     !- Vertex 2 Xcoordinate
    3.359,                    !- Vertex 2 Ycoordinate
    0,                        !- Vertex 2 Zcoordinate
    0.491,                    !- Vertex 3 Xcoordinate
    2.783,                    !- Vertex 3 Ycoordinate
    0,                        !- Vertex 3 Zcoordinate
    0.491,                    !- Vertex 4 Xcoordinate
    2.783,                    !- Vertex 4 Ycoordinate
    10.013;                   !- Vertex 4 Zcoordinate

BUILDINGSURFACE:DETAILED,
    F_3,                      !- Name
    Wall,                     !- Surface Type
    C_F,                      !- Construction Name
    Zone_0599100000051922,    !- Zone Name
    ,                         !- Space Name
    Outdoors,                 !- Outside Boundary Condition
    ,                         !- Outside Boundary Condition Object
    SunExposed,               !- Sun Exposure
    WindExposed,              !- Wind Exposure
    0.5,                      !- View Factor to Ground
    4,                        !- Number of Vertices
    4.62,                     !- Vertex 1 Xcoordinate
    1.799,                    !- Vertex 1 Ycoordinate
    10.013,                   !- Vertex 1 Zcoordinate
    4.62,                     !- Vertex 2 Xcoordinate
    1.799,                    !- Vertex 2 Ycoordinate
    0,                        !- Vertex 2 Zcoordinate
    8.12,                     !- Vertex 3 Xcoordinate
    0.4,                      !- Vertex 3 Ycoordinate
    0,                        !- Vertex 3 Zcoordinate
    8.12,                     !- Vertex 4 Xcoordinate
    0.4,                      !- Vertex 4 Ycoordinate
    10.013;                   !- Vertex 4 Zcoordinate

BUILDINGSURFACE:DETAILED,
    F_4,                      !- Name
    Wall,                     !- Surface Type
    C_F,                      !- Construction Name
    Zone_0599100000051922,    !- Zone Name
    ,                         !- Space Name
    Outdoors,                 !- Outside Boundary Condition
    ,                         !- Outside Boundary Condition Object
    SunExposed,               !- Sun Exposure
    WindExposed,              !- Wind Exposure
    0.5,                      !- View Factor to Ground
    4,                        !- Number of Vertices
    8.12,                     !- Vertex 1 Xcoordinate
    0.4,                      !- Vertex 1 Ycoordinate
    10.013,                   !- Vertex 1 Zcoordinate
    8.12,                     !- Vertex 2 Xcoordinate
    0.4,                      !- Vertex 2 Ycoordinate
    0,                        !- Vertex 2 Zcoordinate
    9.361,                    !- Vertex 3 Xcoordinate
    3.5,                      !- Vertex 3 Ycoordinate
    0,                        !- Vertex 3 Zcoordinate
    9.361,                    !- Vertex 4 Xcoordinate
    3.5,                      !- Vertex 4 Ycoordinate
    10.013;                   !- Vertex 4 Zcoordinate

BUILDINGSURFACE:DETAILED,
    F_5,                      !- Name
    Wall,                     !- Surface Type
    C_F,                      !- Construction Name
    Zone_0599100000051922,    !- Zone Name
    ,                         !- Space Name
    Outdoors,                 !- Outside Boundary Condition
    ,                         !- Outside Boundary Condition Object
    SunExposed,               !- Sun Exposure
    WindExposed,              !- Wind Exposure
    0.5,                      !- View Factor to Ground
    4,                        !- Number of Vertices
    9.361,                    !- Vertex 1 Xcoordinate
    3.5,                      !- Vertex 1 Ycoordinate
    10.013,                   !- Vertex 1 Zcoordinate
    9.361,                    !- Vertex 2 Xcoordinate
    3.5,                      !- Vertex 2 Ycoordinate
    0,                        !- Vertex 2 Zcoordinate
    11.43,                    !- Vertex 3 Xcoordinate
    2.669,                    !- Vertex 3 Ycoordinate
    0,                        !- Vertex 3 Zcoordinate
    11.43,                    !- Vertex 4 Xcoordinate
    2.669,                    !- Vertex 4 Ycoordinate
    10.013;                   !- Vertex 4 Zcoordinate

BUILDINGSURFACE:DETAILED,
    F_6,                      !- Name
    Wall,                     !- Surface Type
    C_F,                      !- Construction Name
    Zone_0599100000051922,    !- Zone Name
    ,                         !- Space Name
    Outdoors,                 !- Outside Boundary Condition
    ,                         !- Outside Boundary Condition Object
    SunExposed,               !- Sun Exposure
    WindExposed,              !- Wind Exposure
    0.5,                      !- View Factor to Ground
    4,                        !- Number of Vertices
    11.43,                    !- Vertex 1 Xcoordinate
    2.669,                    !- Vertex 1 Ycoordinate
    10.013,                   !- Vertex 1 Zcoordinate
    11.43,                    !- Vertex 2 Xcoordinate
    2.669,                    !- Vertex 2 Ycoordinate
    0,                        !- Vertex 2 Zcoordinate
    11.87,                    !- Vertex 3 Xcoordinate
    3.769,                    !- Vertex 3 Ycoordinate
    0,                        !- Vertex 3 Zcoordinate
    11.87,                    !- Vertex 4 Xcoordinate
    3.769,                    !- Vertex 4 Ycoordinate
    10.013;                   !- Vertex 4 Zcoordinate

BUILDINGSURFACE:DETAILED,
    F_7,                      !- Name
    Wall,                     !- Surface Type
    C_F,                      !- Construction Name
    Zone_0599100000051922,    !- Zone Name
    ,                         !- Space Name
    Outdoors,                 !- Outside Boundary Condition
    ,                         !- Outside Boundary Condition Object
    SunExposed,               !- Sun Exposure
    WindExposed,              !- Wind Exposure
    0.5,                      !- View Factor to Ground
    4,                        !- Number of Vertices
    11.87,                    !- Vertex 1 Xcoordinate
    3.769,                    !- Vertex 1 Ycoordinate
    10.013,                   !- Vertex 1 Zcoordinate
    11.87,                    !- Vertex 2 Xcoordinate
    3.769,                    !- Vertex 2 Ycoordinate
    0,                        !- Vertex 2 Zcoordinate
    12.06,                    !- Vertex 3 Xcoordinate
    3.69,                     !- Vertex 3 Ycoordinate
    0,                        !- Vertex 3 Zcoordinate
    12.06,                    !- Vertex 4 Xcoordinate
    3.69,                     !- Vertex 4 Ycoordinate
    10.013;                   !- Vertex 4 Zcoordinate

BUILDINGSURFACE:DETAILED,
    F_8,                      !- Name
    Wall,                     !- Surface Type
    C_F,                      !- Construction Name
    Zone_0599100000051922,    !- Zone Name
    ,                         !- Space Name
    Outdoors,                 !- Outside Boundary Condition
    ,                         !- Outside Boundary Condition Object
    SunExposed,               !- Sun Exposure
    WindExposed,              !- Wind Exposure
    0.5,                      !- View Factor to Ground
    4,                        !- Number of Vertices
    12.06,                    !- Vertex 1 Xcoordinate
    3.69,                     !- Vertex 1 Ycoordinate
    10.013,                   !- Vertex 1 Zcoordinate
    12.06,                    !- Vertex 2 Xcoordinate
    3.69,                     !- Vertex 2 Ycoordinate
    0,                        !- Vertex 2 Zcoordinate
    12.291,                   !- Vertex 3 Xcoordinate
    4.259,                    !- Vertex 3 Ycoordinate
    0,                        !- Vertex 3 Zcoordinate
    12.291,                   !- Vertex 4 Xcoordinate
    4.259,                    !- Vertex 4 Ycoordinate
    10.013;                   !- Vertex 4 Zcoordinate

BUILDINGSURFACE:DETAILED,
    F_9,                      !- Name
    Wall,                     !- Surface Type
    C_F,                      !- Construction Name
    Zone_0599100000051922,    !- Zone Name
    ,                         !- Space Name
    Outdoors,                 !- Outside Boundary Condition
    ,                         !- Outside Boundary Condition Object
    SunExposed,               !- Sun Exposure
    WindExposed,              !- Wind Exposure
    0.5,                      !- View Factor to Ground
    4,                        !- Number of Vertices
    12.09,                    !- Vertex 1 Xcoordinate
    4.34,                     !- Vertex 1 Ycoordinate
    10.013,                   !- Vertex 1 Zcoordinate
    12.09,                    !- Vertex 2 Xcoordinate
    4.34,                     !- Vertex 2 Ycoordinate
    0,                        !- Vertex 2 Zcoordinate
    12.56,                    !- Vertex 3 Xcoordinate
    5.53,                     !- Vertex 3 Ycoordinate
    0,                        !- Vertex 3 Zcoordinate
    12.56,                    !- Vertex 4 Xcoordinate
    5.53,                     !- Vertex 4 Ycoordinate
    10.013;                   !- Vertex 4 Zcoordinate

BUILDINGSURFACE:DETAILED,
    F_10,                     !- Name
    Wall,                     !- Surface Type
    C_F,                      !- Construction Name
    Zone_0599100000051922,    !- Zone Name
    ,                         !- Space Name
    Outdoors,                 !- Outside Boundary Condition
    ,                         !- Outside Boundary Condition Object
    SunExposed,               !- Sun Exposure
    WindExposed,              !- Wind Exposure
    0.5,                      !- View Factor to Ground
    4,                        !- Number of Vertices
    9.421,                    !- Vertex 1 Xcoordinate
    13.859,                   !- Vertex 1 Ycoordinate
    10.013,                   !- Vertex 1 Zcoordinate
    9.421,                    !- Vertex 2 Xcoordinate
    13.859,                   !- Vertex 2 Ycoordinate
    0,                        !- Vertex 2 Zcoordinate
    5.53,                     !- Vertex 3 Xcoordinate
    15.41,                    !- Vertex 3 Ycoordinate
    0,                        !- Vertex 3 Zcoordinate
    5.53,                     !- Vertex 4 Xcoordinate
    15.41,                    !- Vertex 4 Ycoordinate
    10.013;                   !- Vertex 4 Zcoordinate

BUILDINGSURFACE:DETAILED,
    F_11,                     !- Name
    Wall,                     !- Surface Type
    C_F,                      !- Construction Name
    Zone_0599100000051922,    !- Zone Name
    ,                         !- Space Name
    Outdoors,                 !- Outside Boundary Condition
    ,                         !- Outside Boundary Condition Object
    SunExposed,               !- Sun Exposure
    WindExposed,              !- Wind Exposure
    0.5,                      !- View Factor to Ground
    4,                        !- Number of Vertices
    8.881,                    !- Vertex 1 Xcoordinate
    12.509,                   !- Vertex 1 Ycoordinate
    10.013,                   !- Vertex 1 Zcoordinate
    8.881,                    !- Vertex 2 Xcoordinate
    12.509,                   !- Vertex 2 Ycoordinate
    0,                        !- Vertex 2 Zcoordinate
    9.421,                    !- Vertex 3 Xcoordinate
    13.859,                   !- Vertex 3 Ycoordinate
    0,                        !- Vertex 3 Zcoordinate
    9.421,                    !- Vertex 4 Xcoordinate
    13.859,                   !- Vertex 4 Ycoordinate
    10.013;                   !- Vertex 4 Zcoordinate

BUILDINGSURFACE:DETAILED,
    F_12,                     !- Name
    Wall,                     !- Surface Type
    C_F,                      !- Construction Name
    Zone_0599100000051922,    !- Zone Name
    ,                         !- Space Name
    Outdoors,                 !- Outside Boundary Condition
    ,                         !- Outside Boundary Condition Object
    SunExposed,               !- Sun Exposure
    WindExposed,              !- Wind Exposure
    0.5,                      !- View Factor to Ground
    4,                        !- Number of Vertices
    12.56,                    !- Vertex 1 Xcoordinate
    5.53,                     !- Vertex 1 Ycoordinate
    10.013,                   !- Vertex 1 Zcoordinate
    12.56,                    !- Vertex 2 Xcoordinate
    5.53,                     !- Vertex 2 Ycoordinate
    0,                        !- Vertex 2 Zcoordinate
    12.761,                   !- Vertex 3 Xcoordinate
    5.449,                    !- Vertex 3 Ycoordinate
    0,                        !- Vertex 3 Zcoordinate
    12.761,                   !- Vertex 4 Xcoordinate
    5.449,                    !- Vertex 4 Ycoordinate
    10.013;                   !- Vertex 4 Zcoordinate

BUILDINGSURFACE:DETAILED,
    F_13,                     !- Name
    Wall,                     !- Surface Type
    C_F,                      !- Construction Name
    Zone_0599100000051922,    !- Zone Name
    ,                         !- Space Name
    Outdoors,                 !- Outside Boundary Condition
    ,                         !- Outside Boundary Condition Object
    SunExposed,               !- Sun Exposure
    WindExposed,              !- Wind Exposure
    0.5,                      !- View Factor to Ground
    4,                        !- Number of Vertices
    12.761,                   !- Vertex 1 Xcoordinate
    5.449,                    !- Vertex 1 Ycoordinate
    10.013,                   !- Vertex 1 Zcoordinate
    12.761,                   !- Vertex 2 Xcoordinate
    5.449,                    !- Vertex 2 Ycoordinate
    0,                        !- Vertex 2 Zcoordinate
    12.99,                    !- Vertex 3 Xcoordinate
    6.019,                    !- Vertex 3 Ycoordinate
    0,                        !- Vertex 3 Zcoordinate
    12.99,                    !- Vertex 4 Xcoordinate
    6.019,                    !- Vertex 4 Ycoordinate
    10.013;                   !- Vertex 4 Zcoordinate

BUILDINGSURFACE:DETAILED,
    F_14,                     !- Name
    Wall,                     !- Surface Type
    C_F,                      !- Construction Name
    Zone_0599100000051922,    !- Zone Name
    ,                         !- Space Name
    Outdoors,                 !- Outside Boundary Condition
    ,                         !- Outside Boundary Condition Object
    SunExposed,               !- Sun Exposure
    WindExposed,              !- Wind Exposure
    0.5,                      !- View Factor to Ground
    4,                        !- Number of Vertices
    13.421,                   !- Vertex 1 Xcoordinate
    10.71,                    !- Vertex 1 Ycoordinate
    10.013,                   !- Vertex 1 Zcoordinate
    13.421,                   !- Vertex 2 Xcoordinate
    10.71,                    !- Vertex 2 Ycoordinate
    0,                        !- Vertex 2 Zcoordinate
    8.881,                    !- Vertex 3 Xcoordinate
    12.509,                   !- Vertex 3 Ycoordinate
    0,                        !- Vertex 3 Zcoordinate
    8.881,                    !- Vertex 4 Xcoordinate