!- Windows Line endings 

Version,
    24.2;                     !- Version Identifier

SimulationControl,
    No,                       !- Do Zone Sizing Calculation
    No,                       !- Do System Sizing Calculation
    No,                       !- Do Plant Sizing Calculation
    No,                       !- Run Simulation for Sizing Periods
    Yes,                      !- Run Simulation for Weather File Run Periods
    No,                       !- Do HVAC Sizing Simulation for Sizing Periods
    1;                        !- Maximum Number of HVAC Sizing Simulation Passes

BUILDING,
    Pand.0599100000754365,    !- Name
    0,                        !- North Axis
    City,                     !- Terrain
    0.04,                     !- Loads Convergence Tolerance Value
    0.4,                      !- Temperature Convergence Tolerance Value
    FullExterior,             !- Solar Distribution
    25,                       !- Maximum Number of Warmup Days
    1;                        !- Minimum Number of Warmup Days

Timestep,
    6;                        !- Number of Timesteps per Hour

Site:Location,
    Rotterdam.The.Hague.AP_ZH_NLD Design_Conditions,    !- Name
    51.96,                    !- Latitude
    4.45,                     !- Longitude
    1,                        !- Time Zone
    -4.5;                     !- Elevation

RunPeriod,
    Run Period 1,             !- Name
    1,                        !- Begin Month
    1,                        !- Begin Day of Month
    ,                         !- Begin Year
    12,                       !- End Month
    31,                       !- End Day of Month
    ,                         !- End Year
    ,                         !- Day of Week for Start Day
    Yes,                      !- Use Weather File Holidays and Special Days
    Yes,                      !- Use Weather File Daylight Saving Period
    No,                       !- Apply Weekend Holiday Rule
    Yes,                      !- Use Weather File Rain Indicators
    Yes,                      !- Use Weather File Snow Indicators
    No,                       !- Treat Weather as Actual
    Hour24;                   !- First Hour Interpolation Starting Values

RunPeriodControl:DaylightSavingTime,
    Last Sunday in March,     !- Start Date
    Last Sunday in October;    !- End Date

SITE:GROUNDTEMPERATURE:BUILDINGSURFACE,
    18,                       !- January Ground Temperature
    18,                       !- February Ground Temperature
    18,                       !- March Ground Temperature
    18,                       !- April Ground Temperature
    18,                       !- May Ground Temperature
    18,                       !- June Ground Temperature
    18,                       !- July Ground Temperature
    18,                       !- August Ground Temperature
    18,                       !- September Ground Temperature
    18,                       !- October Ground Temperature
    18,                       !- November Ground Temperature
    18;                       !- December Ground Temperature

SCHEDULETYPELIMITS,
    Temperature,              !- Name
    -100,                     !- Lower Limit Value
    100,                      !- Upper Limit Value
    CONTINUOUS,               !- Numeric Type
    Temperature;              !- Unit Type

SCHEDULETYPELIMITS,
    Fraction,                 !- Name
    0,                        !- Lower Limit Value
    1,                        !- Upper Limit Value
    CONTINUOUS,               !- Numeric Type
    Dimensionless;            !- Unit Type

SCHEDULETYPELIMITS,
    Control Type,             !- Name
    0,                        !- Lower Limit Value
    4,                        !- Upper Limit Value
    DISCRETE,                 !- Numeric Type
    Dimensionless;            !- Unit Type

SCHEDULE:COMPACT,
    HeatingSetpoint_Zone_0599100000754365,    !- Name
    Temperature,              !- Schedule Type Limits Name
    Through: 12/31,           !- Field 1
    For: AllDays,             !- Field 2
    Until: 24:00,             !- Field 3
    21.0;                     !- Field 4

SCHEDULE:COMPACT,
    CoolingSetpoint_Zone_0599100000754365,    !- Name
    Temperature,              !- Schedule Type Limits Name
    Through: 12/31,           !- Field 1
    For: AllDays,             !- Field 2
    Until: 24:00,             !- Field 3
    24.0;                     !- Field 4

SCHEDULE:COMPACT,
    DualSetpointControlType,    !- Name
    Control Type,             !- Schedule Type Limits Name
    Through: 12/31,           !- Field 1
    For: AllDays,             !- Field 2
    Until: 24:00,             !- Field 3
    4;                        !- Field 4

SCHEDULE:COMPACT,
    AlwaysOn,                 !- Name
    Fraction,                 !- Schedule Type Limits Name
    Through: 12/31,           !- Field 1
    For: AllDays,             !- Field 2
    Until: 24:00,             !- Field 3
    1.0;                      !- Field 4

MATERIAL,
    G.D.2006-2014,            !- Name
    MediumSmooth,             !- Roughness
    0.15,                     !- Thickness
    0.06,                     !- Conductivity
    540,                      !- Density
    1210,                     !- Specific Heat
    0.9,                      !- Thermal Absorptance
    0.7,                      !- Solar Absorptance
    0.7;                      !- Visible Absorptance

MATERIAL,
    F.D.2006-2014,            !- Name
    Rough,                    !- Roughness
    0.3,                      !- Thickness
    0.12,                     !- Conductivity
    1920,                     !- Density
    840,                      !- Specific Heat
    0.9,                      !- Thermal Absorptance
    0.7,                      !- Solar Absorptance
    0.7;                      !- Visible Absorptance

MATERIAL,
    R.D.2006-2014,            !- Name
    MediumRough,              !- Roughness
    0.2,                      !- Thickness
    0.08,                     !- Conductivity
    1500,                     !- Density
    1000,                     !- Specific Heat
    0.9,                      !- Thermal Absorptance
    0.7,                      !- Solar Absorptance
    0.7;                      !- Visible Absorptance

WINDOWMATERIAL:SIMPLEGLAZINGSYSTEM,
    W.D.2006-2014,            !- Name
    1.8,                      !- UFactor
    0.4,                      !- Solar Heat Gain Coefficient
    0.6;                      !- Visible Transmittance

CONSTRUCTION,
    C_G,                      !- Name
    G.D.2006-2014;            !- Outside Layer

CONSTRUCTION,
    C_F,                      !- Name
    F.D.2006-2014;            !- Outside Layer

CONSTRUCTION,
    C_R,                      !- Name
    R.D.2006-2014;            !- Outside Layer

GlobalGeometryRules,
    UpperLeftCorner,          !- Starting Vertex Position
    Counterclockwise,         !- Vertex Entry Direction
    World,                    !- Coordinate System
    World,                    !- Daylighting Reference Point Coordinate System
    Relative;                 !- Rectangular Surface Coordinate System

ZONE,
    Zone_0599100000754365,    !- Name
    0,                        !- Direction of Relative North
    0,                        !- X Origin
    0,                        !- Y Origin
    0,                        !- Z Origin
    1,                        !- Type
    1,                        !- Multiplier
    Autocalculate,            !- Ceiling Height
    Autocalculate,            !- Volume
    autocalculate,            !- Floor Area
    ,                         !- Zone Inside Convection Algorithm
    ,                         !- Zone Outside Convection Algorithm
    Yes;                      !- Part of Total Floor Area

BUILDINGSURFACE:DETAILED,
    G_0,                      !- Name
    Floor,                    !- Surface Type
    C_G,                      !- Construction Name
    Zone_0599100000754365,    !- Zone Name
    ,                         !- Space Name
    Ground,                   !- Outside Boundary Condition
    ,                         !- Outside Boundary Condition Object
    SunExposed,               !- Sun Exposure
    WindExposed,              !- Wind Exposure
    0.5,                      !- View Factor to Ground
    46,                       !- Number of Vertices
    5.34,                     !- Vertex 1 Xcoordinate
    12.182,                   !- Vertex 1 Ycoordinate
    0,                        !- Vertex 1 Zcoordinate
    5.476,                    !- Vertex 2 Xcoordinate
    12.237,                   !- Vertex 2 Ycoordinate
    0,                        !- Vertex 2 Zcoordinate
    25.966,                   !- Vertex 3 Xcoordinate
    6.015,                    !- Vertex 3 Ycoordinate
    0,                        !- Vertex 3 Zcoordinate
    25.925,                   !- Vertex 4 Xcoordinate
    5.678,                    !- Vertex 4 Ycoordinate
    0,                        !- Vertex 4 Zcoordinate
    25.701,                   !- Vertex 5 Xcoordinate
    5.75,                     !- Vertex 5 Ycoordinate
    0,                        !- Vertex 5 Zcoordinate
    25.058,                   !- Vertex 6 Xcoordinate
    3.651,                    !- Vertex 6 Ycoordinate
    0,                        !- Vertex 6 Zcoordinate
    25.71,                    !- Vertex 7 Xcoordinate
    3.948,                    !- Vertex 7 Ycoordinate
    0,                        !- Vertex 7 Zcoordinate
    25.661,                   !- Vertex 8 Xcoordinate
    3.546,                    !- Vertex 8 Ycoordinate
    0,                        !- Vertex 8 Zcoordinate
    17.72,                    !- Vertex 9 Xcoordinate
    0,                        !- Vertex 9 Ycoordinate
    0,                        !- Vertex 9 Zcoordinate
    17.582,                   !- Vertex 10 Xcoordinate
    0.31,                     !- Vertex 10 Ycoordinate
    0,                        !- Vertex 10 Zcoordinate
    18.441,                   !- Vertex 11 Xcoordinate
    0.701,                    !- Vertex 11 Ycoordinate
    0,                        !- Vertex 11 Zcoordinate
    14.923,                   !- Vertex 12 Xcoordinate
    3.852,                    !- Vertex 12 Ycoordinate
    0,                        !- Vertex 12 Zcoordinate
    6.969,                    !- Vertex 13 Xcoordinate
    6.265,                    !- Vertex 13 Ycoordinate
    0,                        !- Vertex 13 Zcoordinate
    6.991,                    !- Vertex 14 Xcoordinate
    6.101,                    !- Vertex 14 Ycoordinate
    0,                        !- Vertex 14 Zcoordinate
    6.993,                    !- Vertex 15 Xcoordinate
    5.934,                    !- Vertex 15 Ycoordinate
    0,                        !- Vertex 15 Zcoordinate
    6.974,                    !- Vertex 16 Xcoordinate
    5.768,                    !- Vertex 16 Ycoordinate
    0,                        !- Vertex 16 Zcoordinate
    6.933,                    !- Vertex 17 Xcoordinate
    5.607,                    !- Vertex 17 Ycoordinate
    0,                        !- Vertex 17 Zcoordinate
    6.873,                    !- Vertex 18 Xcoordinate
    5.45,                     !- Vertex 18 Ycoordinate
    0,                        !- Vertex 18 Zcoordinate
    6.793,                    !- Vertex 19 Xcoordinate
    5.304,                    !- Vertex 19 Ycoordinate
    0,                        !- Vertex 19 Zcoordinate
    6.696,                    !- Vertex 20 Xcoordinate
    5.169,                    !- Vertex 20 Ycoordinate
    0,                        !- Vertex 20 Zcoordinate
    6.584,                    !- Vertex 21 Xcoordinate
    5.047,                    !- Vertex 21 Ycoordinate
    0,                        !- Vertex 21 Zcoordinate
    6.456,                    !- Vertex 22 Xcoordinate
    4.94,                     !- Vertex 22 Ycoordinate
    0,                        !- Vertex 22 Zcoordinate
    6.314,                    !- Vertex 23 Xcoordinate
    4.849,                    !- Vertex 23 Ycoordinate
    0,                        !- Vertex 23 Zcoordinate
    6.165,                    !- Vertex 24 Xcoordinate
    4.778,                    !- Vertex 24 Ycoordinate
    0,                        !- Vertex 24 Zcoordinate
    6.006,                    !- Vertex 25 Xcoordinate
    4.726,                    !- Vertex 25 Ycoordinate
    0,                        !- Vertex 25 Zcoordinate
    5.842,                    !- Vertex 26 Xcoordinate
    4.693,                    !- Vertex 26 Ycoordinate
    0,                        !- Vertex 26 Zcoordinate
    5.675,                    !- Vertex 27 Xcoordinate
    4.682,                    !- Vertex 27 Ycoordinate
    0,                        !- Vertex 27 Zcoordinate
    5.509,                    !- Vertex 28 Xcoordinate
    4.693,                    !- Vertex 28 Ycoordinate
    0,                        !- Vertex 28 Zcoordinate
    5.345,                    !- Vertex 29 Xcoordinate
    4.724,                    !- Vertex 29 Ycoordinate
    0,                        !- Vertex 29 Zcoordinate
    5.186,                    !- Vertex 30 Xcoordinate
    4.776,                    !- Vertex 30 Ycoordinate
    0,                        !- Vertex 30 Zcoordinate
    5.035,                    !- Vertex 31 Xcoordinate
    4.846,                    !- Vertex 31 Ycoordinate
    0,                        !- Vertex 31 Zcoordinate
    4.894,                    !- Vertex 32 Xcoordinate
    4.937,                    !- Vertex 32 Ycoordinate
    0,                        !- Vertex 32 Zcoordinate
    4.766,                    !- Vertex 33 Xcoordinate
    5.042,                    !- Vertex 33 Ycoordinate
    0,                        !- Vertex 33 Zcoordinate
    4.652,                    !- Vertex 34 Xcoordinate
    5.164,                    !- Vertex 34 Ycoordinate
    0,                        !- Vertex 34 Zcoordinate
    4.555,                    !- Vertex 35 Xcoordinate
    5.299,                    !- Vertex 35 Ycoordinate
    0,                        !- Vertex 35 Zcoordinate
    4.475,                    !- Vertex 36 Xcoordinate
    5.447,                    !- Vertex 36 Ycoordinate
    0,                        !- Vertex 36 Zcoordinate
    4.415,                    !- Vertex 37 Xcoordinate
    5.601,                    !- Vertex 37 Ycoordinate
    0,                        !- Vertex 37 Zcoordinate
    4.373,                    !- Vertex 38 Xcoordinate
    5.763,                    !- Vertex 38 Ycoordinate
    0,                        !- Vertex 38 Zcoordinate
    4.353,                    !- Vertex 39 Xcoordinate
    5.929,                    !- Vertex 39 Ycoordinate
    0,                        !- Vertex 39 Zcoordinate
    4.355,                    !- Vertex 40 Xcoordinate
    6.096,                    !- Vertex 40 Ycoordinate
    0,                        !- Vertex 40 Zcoordinate
    2.628,                    !- Vertex 41 Xcoordinate
    5.312,                    !- Vertex 41 Ycoordinate
    0,                        !- Vertex 41 Zcoordinate
    2.863,                    !- Vertex 42 Xcoordinate
    4.783,                    !- Vertex 42 Ycoordinate
    0,                        !- Vertex 42 Zcoordinate
    2.548,                    !- Vertex 43 Xcoordinate
    4.643,                    !- Vertex 43 Ycoordinate
    0,                        !- Vertex 43 Zcoordinate
    0.988,                    !- Vertex 44 Xcoordinate
    8.153,                    !- Vertex 44 Ycoordinate
    0,                        !- Vertex 44 Zcoordinate
    0,                        !- Vertex 45 Xcoordinate
    10.286,                   !- Vertex 45 Ycoordinate
    0,                        !- Vertex 45 Zcoordinate
    4.444,                    !- Vertex 46 Xcoordinate
    12.454,                   !- Vertex 46 Ycoordinate
    0;                        !- Vertex 46 Zcoordinate

BUILDINGSURFACE:DETAILED,
    F_1,                      !- Name
    Wall,                     !- Surface Type
    C_F,                      !- Construction Name
    Zone_0599100000754365,    !- Zone Name
    ,                         !- Space Name
    Outdoors,                 !- Outside Boundary Condition
    ,                         !- Outside Boundary Condition Object
    SunExposed,               !- Sun Exposure
    WindExposed,              !- Wind Exposure
    0.5,                      !- View Factor to Ground
    4,                        !- Number of Vertices
    4.475,                    !- Vertex 1 Xcoordinate
    5.447,                    !- Vertex 1 Ycoordinate
    6.692,                    !- Vertex 1 Zcoordinate
    4.475,                    !- Vertex 2 Xcoordinate
    5.447,                    !- Vertex 2 Ycoordinate
    0,                        !- Vertex 2 Zcoordinate
    4.555,                    !- Vertex 3 Xcoordinate
    5.299,                    !- Vertex 3 Ycoordinate
    0,                        !- Vertex 3 Zcoordinate
    4.555,                    !- Vertex 4 Xcoordinate
    5.299,                    !- Vertex 4 Ycoordinate
    6.692;                    !- Vertex 4 Zcoordinate

BUILDINGSURFACE:DETAILED,
    F_2,                      !- Name
    Wall,                     !- Surface Type
    C_F,                      !- Construction Name
    Zone_0599100000754365,    !- Zone Name
    ,                         !- Space Name
    Outdoors,                 !- Outside Boundary Condition
    ,                         !- Outside Boundary Condition Object
    SunExposed,               !- Sun Exposure
    WindExposed,              !- Wind Exposure
    0.5,                      !- View Factor to Ground
    4,                        !- Number of Vertices
    0.988,                    !- Vertex 1 Xcoordinate
    8.153,                    !- Vertex 1 Ycoordinate
    6.692,                    !- Vertex 1 Zcoordinate
    0.988,                    !- Vertex 2 Xcoordinate
    8.153,                    !- Vertex 2 Ycoordinate
    0,                        !- Vertex 2 Zcoordinate
    2.548,                    !- Vertex 3 Xcoordinate
    4.643,                    !- Vertex 3 Ycoordinate
    0,                        !- Vertex 3 Zcoordinate
    2.548,                    !- Vertex 4 Xcoordinate
    4.643,                    !- Vertex 4 Ycoordinate
    6.692;                    !- Vertex 4 Zcoordinate

BUILDINGSURFACE:DETAILED,
    F_3,                      !- Name
    Wall,                     !- Surface Type
    C_F,                      !- Construction Name
    Zone_0599100000754365,    !- Zone Name
    ,                         !- Space Name
    Outdoors,                 !- Outside Boundary Condition
    ,                         !- Outside Boundary Condition Object
    SunExposed,               !- Sun Exposure
    WindExposed,              !- Wind Exposure
    0.5,                      !- View Factor to Ground
    4,                        !- Number of Vertices
    2.548,                    !- Vertex 1 Xcoordinate
    4.643,                    !- Vertex 1 Ycoordinate
    6.692,                    !- Vertex 1 Zcoordinate
    2.548,                    !- Vertex 2 Xcoordinate
    4.643,                    !- Vertex 2 Ycoordinate
    0,                        !- Vertex 2 Zcoordinate
    2.863,                    !- Vertex 3 Xcoordinate
    4.783,                    !- Vertex 3 Ycoordinate
    0,                        !- Vertex 3 Zcoordinate
    2.863,                    !- Vertex 4 Xcoordinate
    4.783,                    !- Vertex 4 Ycoordinate
    6.692;                    !- Vertex 4 Zcoordinate

BUILDINGSURFACE:DETAILED,
    F_4,                      !- Name
    Wall,                     !- Surface Type
    C_F,                      !- Construction Name
    Zone_0599100000754365,    !- Zone Name
    ,                         !- Space Name
    Outdoors,                 !- Outside Boundary Condition
    ,                         !- Outside Boundary Condition Object
    SunExposed,               !- Sun Exposure
    WindExposed,              !- Wind Exposure
    0.5,                      !- View Factor to Ground
    4,                        !- Number of Vertices
    2.863,                    !- Vertex 1 Xcoordinate
    4.783,                    !- Vertex 1 Ycoordinate
    6.692,                    !- Vertex 1 Zcoordinate
    2.863,                    !- Vertex 2 Xcoordinate
    4.783,                    !- Vertex 2 Ycoordinate
    0,                        !- Vertex 2 Zcoordinate
    2.628,                    !- Vertex 3 Xcoordinate
    5.312,                    !- Vertex 3 Ycoordinate
    0,                        !- Vertex 3 Zcoordinate
    2.628,                    !- Vertex 4 Xcoordinate
    5.312,                    !- Vertex 4 Ycoordinate
    6.692;                    !- Vertex 4 Zcoordinate

BUILDINGSURFACE:DETAILED,
    F_5,                      !- Name
    Wall,                     !- Surface Type
    C_F,                      !- Construction Name
    Zone_0599100000754365,    !- Zone Name
    ,                         !- Space Name
    Outdoors,                 !- Outside Boundary Condition
    ,                         !- Outside Boundary Condition Object
    SunExposed,               !- Sun Exposure
    WindExposed,              !- Wind Exposure
    0.5,                      !- View Factor to Ground
    4,                        !- Number of Vertices
    2.628,                    !- Vertex 1 Xcoordinate
    5.312,                    !- Vertex 1 Ycoordinate
    6.692,                    !- Vertex 1 Zcoordinate
    2.628,                    !- Vertex 2 Xcoordinate
    5.312,                    !- Vertex 2 Ycoordinate
    0,                        !- Vertex 2 Zcoordinate
    4.355,                    !- Vertex 3 Xcoordinate
    6.096,                    !- Vertex 3 Ycoordinate
    0,                        !- Vertex 3 Zcoordinate
    4.355,                    !- Vertex 4 Xcoordinate
    6.096,                    !- Vertex 4 Ycoordinate
    6.692;                    !- Vertex 4 Zcoordinate

BUILDINGSURFACE:DETAILED,
    F_6,                      !- Name
    Wall,                     !- Surface Type
    C_F,                      !- Construction Name
    Zone_0599100000754365,    !- Zone Name
    ,                         !- Space Name
    Outdoors,                 !- Outside Boundary Condition
    ,                         !- Outside Boundary Condition Object
    SunExposed,               !- Sun Exposure
    WindExposed,              !- Wind Exposure
    0.5,                      !- View Factor to Ground
    4,                        !- Number of Vertices
    4.353,                    !- Vertex 1 Xcoordinate
    5.929,                    !- Vertex 1 Ycoordinate
    6.692,                    !- Vertex 1 Zcoordinate
    4.353,                    !- Vertex 2 Xcoordinate
    5.929,                    !- Vertex 2 Ycoordinate
    0,                        !- Vertex 2 Zcoordinate
    4.373,                    !- Vertex 3 Xcoordinate
    5.763,                    !- Vertex 3 Ycoordinate
    0,                        !- Vertex 3 Zcoordinate
    4.373,                    !- Vertex 4 Xcoordinate
    5.763,                    !- Vertex 4 Ycoordinate
    6.692;                    !- Vertex 4 Zcoordinate

BUILDINGSURFACE:DETAILED,
    F_7,                      !- Name
    Wall,                     !- Surface Type
    C_F,                      !- Construction Name
    Zone_0599100000754365,    !- Zone Name
    ,                         !- Space Name
    Outdoors,                 !- Outside Boundary Condition
    ,                         !- Outside Boundary Condition Object
    SunExposed,               !- Sun Exposure
    WindExposed,              !- Wind Exposure
    0.5,                      !- View Factor to Ground
    4,                        !- Number of Vertices
    4.373,                    !- Vertex 1 Xcoordinate
    5.763,                    !- Vertex 1 Ycoordinate
    6.692,                    !- Vertex 1 Zcoordinate
    4.373,                    !- Vertex 2 Xcoordinate
    5.763,                    !- Vertex 2 Ycoordinate
    0,                        !- Vertex 2 Zcoordinate
    4.415,                    !- Vertex 3 Xcoordinate
    5.601,                    !- Vertex 3 Ycoordinate
    0,                        !- Vertex 3 Zcoordinate
    4.415,                    !- Vertex 4 Xcoordinate
    5.601,                    !- Vertex 4 Ycoordinate
    6.692;                    !- Vertex 4 Zcoordinate

BUILDINGSURFACE:DETAILED,
    F_8,                      !- Name
    Wall,                     !- Surface Type
    C_F,                      !- Construction Name
    Zone_0599100000754365,    !- Zone Name
    ,                         !- Space Name
    Outdoors,                 !- Outside Boundary Condition
    ,                         !- Outside Boundary Condition Object
    SunExposed,               !- Sun Exposure
    WindExposed,              !- Wind Exposure
    0.5,                      !- View Factor to Ground
    4,                        !- Number of Vertices
    4.355,                    !- Vertex 1 Xcoordinate
    6.096,                    !- Vertex 1 Ycoordinate
    6.692,                    !- Vertex 1 Zcoordinate
    4.355,                    !- Vertex 2 Xcoordinate
    6.096,                    !- Vertex 2 Ycoordinate
    0,                        !- Vertex 2 Zcoordinate
    4.353,                    !- Vertex 3 Xcoordinate
    5.929,                    !- Vertex 3 Ycoordinate
    0,                        !- Vertex 3 Zcoordinate
    4.353,                    !- Vertex 4 Xcoordinate
    5.929,                    !- Vertex 4 Ycoordinate
    6.692;                    !- Vertex 4 Zcoordinate

BUILDINGSURFACE:DETAILED,
    F_9,                      !- Name
    Wall,                     !- Surface Type
    C_F,                      !- Construction Name
    Zone_0599100000754365,    !- Zone Name
    ,                         !- Space Name
    Outdoors,                 !- Outside Boundary Condition
    ,                         !- Outside Boundary Condition Object
    SunExposed,               !- Sun Exposure
    WindExposed,              !- Wind Exposure
    0.5,                      !- View Factor to Ground
    4,                        !- Number of Vertices
    4.415,                    !- Vertex 1 Xcoordinate
    5.601,                    !- Vertex 1 Ycoordinate
    6.692,                    !- Vertex 1 Zcoordinate
    4.415,                    !- Vertex 2 Xcoordinate
    5.601,                    !- Vertex 2 Ycoordinate
    0,                        !- Vertex 2 Zcoordinate
    4.475,                    !- Vertex 3 Xcoordinate
    5.447,                    !- Vertex 3 Ycoordinate
    0,                        !- Vertex 3 Zcoordinate
    4.475,                    !- Vertex 4 Xcoordinate
    5.447,                    !- Vertex 4 Ycoordinate
    6.692;                    !- Vertex 4 Zcoordinate

BUILDINGSURFACE:DETAILED,
    F_10,                     !- Name
    Wall,                     !- Surface Type
    C_F,                      !- Construction Name
    Zone_0599100000754365,    !- Zone Name
    ,                         !- Space Name
    Outdoors,                 !- Outside Boundary Condition
    ,                         !- Outside Boundary Condition Object
    SunExposed,               !- Sun Exposure
    WindExposed,              !- Wind Exposure
    0.5,                      !- View Factor to Ground
    4,                        !- Number of Vertices
    4.555,                    !- Vertex 1 Xcoordinate
    5.299,                    !- Vertex 1 Ycoordinate
    6.692,                    !- Vertex 1 Zcoordinate
    4.555,                    !- Vertex 2 Xcoordinate
    5.299,                    !- Vertex 2 Ycoordinate
    0,                        !- Vertex 2 Zcoordinate
    4.652,                    !- Vertex 3 Xcoordinate
    5.164,                    !- Vertex 3 Ycoordinate
    0,                        !- Vertex 3 Zcoordinate
    4.652,                    !- Vertex 4 Xcoordinate
    5.164,                    !- Vertex 4 Ycoordinate
    6.692;                    !- Vertex 4 Zcoordinate

BUILDINGSURFACE:DETAILED,
    F_11,                     !- Name
    Wall,                     !- Surface Type
    C_F,                      !- Construction Name
    Zone_0599100000754365,    !- Zone Name
    ,                         !- Space Name
    Outdoors,                 !- Outside Boundary Condition
    ,                         !- Outside Boundary Condition Object
    SunExposed,               !- Sun Exposure
    WindExposed,              !- Wind Exposure
    0.5,                      !- View Factor to Ground
    4,                        !- Number of Vertices
    4.766,                    !- Vertex 1 Xcoordinate
    5.042,                    !- Vertex 1 Ycoordinate
    6.692,                    !- Vertex 1 Zcoordinate
    4.766,                    !- Vertex 2 Xcoordinate
    5.042,                    !- Vertex 2 Ycoordinate
    0,                        !- Vertex 2 Zcoordinate
    4.894,                    !- Vertex 3 Xcoordinate
    4.937,                    !- Vertex 3 Ycoordinate
    0,                        !- Vertex 3 Zcoordinate
    4.894,                    !- Vertex 4 Xcoordinate
    4.937,                    !- Vertex 4 Ycoordinate
    6.692;                    !- Vertex 4 Zcoordinate

BUILDINGSURFACE:DETAILED,
    F_12,                     !- Name
    Wall,                     !- Surface Type
    C_F,                      !- Construction Name
    Zone_0599100000754365,    !- Zone Name
    ,                         !- Space Name
    Outdoors,                 !- Outside Boundary Condition
    ,                         !- Outside Boundary Condition Object
    SunExposed,               !- Sun Exposure
    WindExposed,              !- Wind Exposure
    0.5,                      !- View Factor to Ground
    4,                        !- Number of Vertices