!- Windows Line endings 

Version,
    24.2;                     !- Version Identifier

SimulationControl,
    No,                       !- Do Zone Sizing Calculation
    No,                       !- Do System Sizing Calculation
    No,                       !- Do Plant Sizing Calculation
    No,                       !- Run Simulation for Sizing Periods
    Yes,                      !- Run Simulation for Weather File Run Periods
    No,                       !- Do HVAC Sizing Simulation for Sizing Periods
    1;                        !- Maximum Number of HVAC Sizing Simulation Passes

BUILDING,
    Pand.0599100000013573,    !- Name
    0,                        !- North Axis
    City,                     !- Terrain
    0.04,                     !- Loads Convergence Tolerance Value
    0.4,                      !- Temperature Convergence Tolerance Value
    FullExterior,             !- Solar Distribution
    25,                       !- Maximum Number of Warmup Days
    1;                        !- Minimum Number of Warmup Days

Timestep,
    6;                        !- Number of Timesteps per Hour

Site:Location,
    Rotterdam.The.Hague.AP_ZH_NLD Design_Conditions,    !- Name
    51.96,                    !- Latitude
    4.45,                     !- Longitude
    1,                        !- Time Zone
    -4.5;                     !- Elevation

RunPeriod,
    Run Period 1,             !- Name
    1,                        !- Begin Month
    1,                        !- Begin Day of Month
    ,                         !- Begin Year
    12,                       !- End Month
    31,                       !- End Day of Month
    ,                         !- End Year
    ,                         !- Day of Week for Start Day
    Yes,                      !- Use Weather File Holidays and Special Days
    Yes,                      !- Use Weather File Daylight Saving Period
    No,                       !- Apply Weekend Holiday Rule
    Yes,                      !- Use Weather File Rain Indicators
    Yes,                      !- Use Weather File Snow Indicators
    No,                       !- Treat Weather as Actual
    Hour24;                   !- First Hour Interpolation Starting Values

RunPeriodControl:DaylightSavingTime,
    Last Sunday in March,     !- Start Date
    Last Sunday in October;    !- End Date

SITE:GROUNDTEMPERATURE:BUILDINGSURFACE,
    18,                       !- January Ground Temperature
    18,                       !- February Ground Temperature
    18,                       !- March Ground Temperature
    18,                       !- April Ground Temperature
    18,                       !- May Ground Temperature
    18,                       !- June Ground Temperature
    18,                       !- July Ground Temperature
    18,                       !- August Ground Temperature
    18,                       !- September Ground Temperature
    18,                       !- October Ground Temperature
    18,                       !- November Ground Temperature
    18;                       !- December Ground Temperature

SCHEDULETYPELIMITS,
    Temperature,              !- Name
    -100,                     !- Lower Limit Value
    100,                      !- Upper Limit Value
    CONTINUOUS,               !- Numeric Type
    Temperature;              !- Unit Type

SCHEDULETYPELIMITS,
    Fraction,                 !- Name
    0,                        !- Lower Limit Value
    1,                        !- Upper Limit Value
    CONTINUOUS,               !- Numeric Type
    Dimensionless;            !- Unit Type

SCHEDULETYPELIMITS,
    Control Type,             !- Name
    0,                        !- Lower Limit Value
    4,                        !- Upper Limit Value
    DISCRETE,                 !- Numeric Type
    Dimensionless;            !- Unit Type

SCHEDULE:COMPACT,
    HeatingSetpoint_Zone_0599100000013573,    !- Name
    Temperature,              !- Schedule Type Limits Name
    Through: 12/31,           !- Field 1
    For: AllDays,             !- Field 2
    Until: 24:00,             !- Field 3
    21.0;                     !- Field 4

SCHEDULE:COMPACT,
    CoolingSetpoint_Zone_0599100000013573,    !- Name
    Temperature,              !- Schedule Type Limits Name
    Through: 12/31,           !- Field 1
    For: AllDays,             !- Field 2
    Until: 24:00,             !- Field 3
    24.0;                     !- Field 4

SCHEDULE:COMPACT,
    DualSetpointControlType,    !- Name
    Control Type,             !- Schedule Type Limits Name
    Through: 12/31,           !- Field 1
    For: AllDays,             !- Field 2
    Until: 24:00,             !- Field 3
    4;                        !- Field 4

SCHEDULE:COMPACT,
    AlwaysOn,                 !- Name
    Fraction,                 !- Schedule Type Limits Name
    Through: 12/31,           !- Field 1
    For: AllDays,             !- Field 2
    Until: 24:00,             !- Field 3
    1.0;                      !- Field 4

MATERIAL,
    G.D.1965,                 !- Name
    MediumSmooth,             !- Roughness
    0.15,                     !- Thickness
    1,                        !- Conductivity
    540,                      !- Density
    1210,                     !- Specific Heat
    0.9,                      !- Thermal Absorptance
    0.7,                      !- Solar Absorptance
    0.7;                      !- Visible Absorptance

MATERIAL,
    F.D.1965,                 !- Name
    Rough,                    !- Roughness
    0.3,                      !- Thickness
    0.8571428571428572,       !- Conductivity
    1920,                     !- Density
    840,                      !- Specific Heat
    0.9,                      !- Thermal Absorptance
    0.7,                      !- Solar Absorptance
    0.7;                      !- Visible Absorptance

MATERIAL,
    R.D.1965,                 !- Name
    MediumRough,              !- Roughness
    0.2,                      !- Thickness
    0.08,                     !- Conductivity
    1500,                     !- Density
    1000,                     !- Specific Heat
    0.9,                      !- Thermal Absorptance
    0.7,                      !- Solar Absorptance
    0.7;                      !- Visible Absorptance

WINDOWMATERIAL:SIMPLEGLAZINGSYSTEM,
    W.D.1965,                 !- Name
    1.8,                      !- UFactor
    0.4,                      !- Solar Heat Gain Coefficient
    0.6;                      !- Visible Transmittance

CONSTRUCTION,
    C_G,                      !- Name
    G.D.1965;                 !- Outside Layer

CONSTRUCTION,
    C_F,                      !- Name
    F.D.1965;                 !- Outside Layer

CONSTRUCTION,
    C_R,                      !- Name
    R.D.1965;                 !- Outside Layer

GlobalGeometryRules,
    UpperLeftCorner,          !- Starting Vertex Position
    Counterclockwise,         !- Vertex Entry Direction
    World,                    !- Coordinate System
    World,                    !- Daylighting Reference Point Coordinate System
    Relative;                 !- Rectangular Surface Coordinate System

ZONE,
    Zone_0599100000013573,    !- Name
    0,                        !- Direction of Relative North
    0,                        !- X Origin
    0,                        !- Y Origin
    0,                        !- Z Origin
    1,                        !- Type
    1,                        !- Multiplier
    Autocalculate,            !- Ceiling Height
    Autocalculate,            !- Volume
    autocalculate,            !- Floor Area
    ,                         !- Zone Inside Convection Algorithm
    ,                         !- Zone Outside Convection Algorithm
    Yes;                      !- Part of Total Floor Area

BUILDINGSURFACE:DETAILED,
    G_0,                      !- Name
    Floor,                    !- Surface Type
    C_G,                      !- Construction Name
    Zone_0599100000013573,    !- Zone Name
    ,                         !- Space Name
    Ground,                   !- Outside Boundary Condition
    ,                         !- Outside Boundary Condition Object
    SunExposed,               !- Sun Exposure
    WindExposed,              !- Wind Exposure
    0.5,                      !- View Factor to Ground
    35,                       !- Number of Vertices
    0.082,                    !- Vertex 1 Xcoordinate
    12.911,                   !- Vertex 1 Ycoordinate
    0,                        !- Vertex 1 Zcoordinate
    0.231,                    !- Vertex 2 Xcoordinate
    13.42,                    !- Vertex 2 Ycoordinate
    0,                        !- Vertex 2 Zcoordinate
    0.448,                    !- Vertex 3 Xcoordinate
    13.905,                   !- Vertex 3 Ycoordinate
    0,                        !- Vertex 3 Zcoordinate
    0.728,                    !- Vertex 4 Xcoordinate
    14.354,                   !- Vertex 4 Ycoordinate
    0,                        !- Vertex 4 Zcoordinate
    1.069,                    !- Vertex 5 Xcoordinate
    14.762,                   !- Vertex 5 Ycoordinate
    0,                        !- Vertex 5 Zcoordinate
    1.461,                    !- Vertex 6 Xcoordinate
    15.117,                   !- Vertex 6 Ycoordinate
    0,                        !- Vertex 6 Zcoordinate
    1.899,                    !- Vertex 7 Xcoordinate
    15.418,                   !- Vertex 7 Ycoordinate
    0,                        !- Vertex 7 Zcoordinate
    2.374,                    !- Vertex 8 Xcoordinate
    15.655,                   !- Vertex 8 Ycoordinate
    0,                        !- Vertex 8 Zcoordinate
    2.875,                    !- Vertex 9 Xcoordinate
    15.824,                   !- Vertex 9 Ycoordinate
    0,                        !- Vertex 9 Zcoordinate
    3.396,                    !- Vertex 10 Xcoordinate
    15.923,                   !- Vertex 10 Ycoordinate
    0,                        !- Vertex 10 Zcoordinate
    3.926,                    !- Vertex 11 Xcoordinate
    15.949,                   !- Vertex 11 Ycoordinate
    0,                        !- Vertex 11 Zcoordinate
    3.926,                    !- Vertex 12 Xcoordinate
    16.069,                   !- Vertex 12 Ycoordinate
    0,                        !- Vertex 12 Zcoordinate
    4.477,                    !- Vertex 13 Xcoordinate
    16.069,                   !- Vertex 13 Ycoordinate
    0,                        !- Vertex 13 Zcoordinate
    4.477,                    !- Vertex 14 Xcoordinate
    16.4,                     !- Vertex 14 Ycoordinate
    0,                        !- Vertex 14 Zcoordinate
    16.537,                   !- Vertex 15 Xcoordinate
    16.299,                   !- Vertex 15 Ycoordinate
    0,                        !- Vertex 15 Zcoordinate
    16.501,                   !- Vertex 16 Xcoordinate
    9.439,                    !- Vertex 16 Ycoordinate
    0,                        !- Vertex 16 Zcoordinate
    16.218,                   !- Vertex 17 Xcoordinate
    9.342,                    !- Vertex 17 Ycoordinate
    0,                        !- Vertex 17 Zcoordinate
    16.206,                   !- Vertex 18 Xcoordinate
    8.559,                    !- Vertex 18 Ycoordinate
    0,                        !- Vertex 18 Zcoordinate
    13.167,                   !- Vertex 19 Xcoordinate
    8.549,                    !- Vertex 19 Ycoordinate
    0,                        !- Vertex 19 Zcoordinate
    11.353,                   !- Vertex 20 Xcoordinate
    6.405,                    !- Vertex 20 Ycoordinate
    0,                        !- Vertex 20 Zcoordinate
    12.577,                   !- Vertex 21 Xcoordinate
    5.38,                     !- Vertex 21 Ycoordinate
    0,                        !- Vertex 21 Zcoordinate
    14.427,                   !- Vertex 22 Xcoordinate
    3.928,                    !- Vertex 22 Ycoordinate
    0,                        !- Vertex 22 Zcoordinate
    11.194,                   !- Vertex 23 Xcoordinate
    0.323,                    !- Vertex 23 Ycoordinate
    0,                        !- Vertex 23 Zcoordinate
    8.287,                    !- Vertex 24 Xcoordinate
    2.78,                     !- Vertex 24 Ycoordinate
    0,                        !- Vertex 24 Zcoordinate
    1.547,                    !- Vertex 25 Xcoordinate
    8.4,                      !- Vertex 25 Ycoordinate
    0,                        !- Vertex 25 Zcoordinate
    1.757,                    !- Vertex 26 Xcoordinate
    8.65,                     !- Vertex 26 Ycoordinate
    0,                        !- Vertex 26 Zcoordinate
    1.327,                    !- Vertex 27 Xcoordinate
    8.979,                    !- Vertex 27 Ycoordinate
    0,                        !- Vertex 27 Zcoordinate
    1.406,                    !- Vertex 28 Xcoordinate
    9.1,                      !- Vertex 28 Ycoordinate
    0,                        !- Vertex 28 Zcoordinate
    1.021,                    !- Vertex 29 Xcoordinate
    9.463,                    !- Vertex 29 Ycoordinate
    0,                        !- Vertex 29 Zcoordinate
    0.688,                    !- Vertex 30 Xcoordinate
    9.876,                    !- Vertex 30 Ycoordinate
    0,                        !- Vertex 30 Zcoordinate
    0.415,                    !- Vertex 31 Xcoordinate
    10.331,                   !- Vertex 31 Ycoordinate
    0,                        !- Vertex 31 Zcoordinate
    0.207,                    !- Vertex 32 Xcoordinate
    10.819,                   !- Vertex 32 Ycoordinate
    0,                        !- Vertex 32 Zcoordinate
    0.068,                    !- Vertex 33 Xcoordinate
    11.331,                   !- Vertex 33 Ycoordinate
    0,                        !- Vertex 33 Zcoordinate
    0,                        !- Vertex 34 Xcoordinate
    11.857,                   !- Vertex 34 Ycoordinate
    0,                        !- Vertex 34 Zcoordinate
    0.004,                    !- Vertex 35 Xcoordinate
    12.387,                   !- Vertex 35 Ycoordinate
    0;                        !- Vertex 35 Zcoordinate

BUILDINGSURFACE:DETAILED,
    F_1,                      !- Name
    Wall,                     !- Surface Type
    C_F,                      !- Construction Name
    Zone_0599100000013573,    !- Zone Name
    ,                         !- Space Name
    Outdoors,                 !- Outside Boundary Condition
    ,                         !- Outside Boundary Condition Object
    SunExposed,               !- Sun Exposure
    WindExposed,              !- Wind Exposure
    0.5,                      !- View Factor to Ground
    4,                        !- Number of Vertices
    3.926,                    !- Vertex 1 Xcoordinate
    15.949,                   !- Vertex 1 Ycoordinate
    9.865,                    !- Vertex 1 Zcoordinate
    3.926,                    !- Vertex 2 Xcoordinate
    15.949,                   !- Vertex 2 Ycoordinate
    0,                        !- Vertex 2 Zcoordinate
    3.396,                    !- Vertex 3 Xcoordinate
    15.923,                   !- Vertex 3 Ycoordinate
    0,                        !- Vertex 3 Zcoordinate
    3.396,                    !- Vertex 4 Xcoordinate
    15.923,                   !- Vertex 4 Ycoordinate
    9.865;                    !- Vertex 4 Zcoordinate

BUILDINGSURFACE:DETAILED,
    F_2,                      !- Name
    Wall,                     !- Surface Type
    C_F,                      !- Construction Name
    Zone_0599100000013573,    !- Zone Name
    ,                         !- Space Name
    Outdoors,                 !- Outside Boundary Condition
    ,                         !- Outside Boundary Condition Object
    SunExposed,               !- Sun Exposure
    WindExposed,              !- Wind Exposure
    0.5,                      !- View Factor to Ground
    4,                        !- Number of Vertices
    4.477,                    !- Vertex 1 Xcoordinate
    16.4,                     !- Vertex 1 Ycoordinate
    9.865,                    !- Vertex 1 Zcoordinate
    4.477,                    !- Vertex 2 Xcoordinate
    16.4,                     !- Vertex 2 Ycoordinate
    0,                        !- Vertex 2 Zcoordinate
    4.477,                    !- Vertex 3 Xcoordinate
    16.069,                   !- Vertex 3 Ycoordinate
    0,                        !- Vertex 3 Zcoordinate
    4.477,                    !- Vertex 4 Xcoordinate
    16.069,                   !- Vertex 4 Ycoordinate
    9.865;                    !- Vertex 4 Zcoordinate

BUILDINGSURFACE:DETAILED,
    F_3,                      !- Name
    Wall,                     !- Surface Type
    C_F,                      !- Construction Name
    Zone_0599100000013573,    !- Zone Name
    ,                         !- Space Name
    Outdoors,                 !- Outside Boundary Condition
    ,                         !- Outside Boundary Condition Object
    SunExposed,               !- Sun Exposure
    WindExposed,              !- Wind Exposure
    0.5,                      !- View Factor to Ground
    4,                        !- Number of Vertices
    16.537,                   !- Vertex 1 Xcoordinate
    16.299,                   !- Vertex 1 Ycoordinate
    9.865,                    !- Vertex 1 Zcoordinate
    16.537,                   !- Vertex 2 Xcoordinate
    16.299,                   !- Vertex 2 Ycoordinate
    0,                        !- Vertex 2 Zcoordinate
    4.477,                    !- Vertex 3 Xcoordinate
    16.4,                     !- Vertex 3 Ycoordinate
    0,                        !- Vertex 3 Zcoordinate
    4.477,                    !- Vertex 4 Xcoordinate
    16.4,                     !- Vertex 4 Ycoordinate
    9.865;                    !- Vertex 4 Zcoordinate

BUILDINGSURFACE:DETAILED,
    F_4,                      !- Name
    Wall,                     !- Surface Type
    C_F,                      !- Construction Name
    Zone_0599100000013573,    !- Zone Name
    ,                         !- Space Name
    Outdoors,                 !- Outside Boundary Condition
    ,                         !- Outside Boundary Condition Object
    SunExposed,               !- Sun Exposure
    WindExposed,              !- Wind Exposure
    0.5,                      !- View Factor to Ground
    4,                        !- Number of Vertices
    4.477,                    !- Vertex 1 Xcoordinate
    16.069,                   !- Vertex 1 Ycoordinate
    9.865,                    !- Vertex 1 Zcoordinate
    4.477,                    !- Vertex 2 Xcoordinate
    16.069,                   !- Vertex 2 Ycoordinate
    0,                        !- Vertex 2 Zcoordinate
    3.926,                    !- Vertex 3 Xcoordinate
    16.069,                   !- Vertex 3 Ycoordinate
    0,                        !- Vertex 3 Zcoordinate
    3.926,                    !- Vertex 4 Xcoordinate
    16.069,                   !- Vertex 4 Ycoordinate
    9.865;                    !- Vertex 4 Zcoordinate

BUILDINGSURFACE:DETAILED,
    F_5,                      !- Name
    Wall,                     !- Surface Type
    C_F,                      !- Construction Name
    Zone_0599100000013573,    !- Zone Name
    ,                         !- Space Name
    Outdoors,                 !- Outside Boundary Condition
    ,                         !- Outside Boundary Condition Object
    SunExposed,               !- Sun Exposure
    WindExposed,              !- Wind Exposure
    0.5,                      !- View Factor to Ground
    4,                        !- Number of Vertices
    3.926,                    !- Vertex 1 Xcoordinate
    16.069,                   !- Vertex 1 Ycoordinate
    9.865,                    !- Vertex 1 Zcoordinate
    3.926,                    !- Vertex 2 Xcoordinate
    16.069,                   !- Vertex 2 Ycoordinate
    0,                        !- Vertex 2 Zcoordinate
    3.926,                    !- Vertex 3 Xcoordinate
    15.949,                   !- Vertex 3 Ycoordinate
    0,                        !- Vertex 3 Zcoordinate
    3.926,                    !- Vertex 4 Xcoordinate
    15.949,                   !- Vertex 4 Ycoordinate
    9.865;                    !- Vertex 4 Zcoordinate

BUILDINGSURFACE:DETAILED,
    F_6,                      !- Name
    Wall,                     !- Surface Type
    C_F,                      !- Construction Name
    Zone_0599100000013573,    !- Zone Name
    ,                         !- Space Name
    Outdoors,                 !- Outside Boundary Condition
    ,                         !- Outside Boundary Condition Object
    SunExposed,               !- Sun Exposure
    WindExposed,              !- Wind Exposure
    0.5,                      !- View Factor to Ground
    4,                        !- Number of Vertices
    1.899,                    !- Vertex 1 Xcoordinate
    15.418,                   !- Vertex 1 Ycoordinate
    9.865,                    !- Vertex 1 Zcoordinate
    1.899,                    !- Vertex 2 Xcoordinate
    15.418,                   !- Vertex 2 Ycoordinate
    0,                        !- Vertex 2 Zcoordinate
    1.461,                    !- Vertex 3 Xcoordinate
    15.117,                   !- Vertex 3 Ycoordinate
    0,                        !- Vertex 3 Zcoordinate
    1.461,                    !- Vertex 4 Xcoordinate
    15.117,                   !- Vertex 4 Ycoordinate
    9.865;                    !- Vertex 4 Zcoordinate

BUILDINGSURFACE:DETAILED,
    F_7,                      !- Name
    Wall,                     !- Surface Type
    C_F,                      !- Construction Name
    Zone_0599100000013573,    !- Zone Name
    ,                         !- Space Name
    Outdoors,                 !- Outside Boundary Condition
    ,                         !- Outside Boundary Condition Object
    SunExposed,               !- Sun Exposure
    WindExposed,              !- Wind Exposure
    0.5,                      !- View Factor to Ground
    4,                        !- Number of Vertices
    2.374,                    !- Vertex 1 Xcoordinate
    15.655,                   !- Vertex 1 Ycoordinate
    9.865,                    !- Vertex 1 Zcoordinate
    2.374,                    !- Vertex 2 Xcoordinate
    15.655,                   !- Vertex 2 Ycoordinate
    0,                        !- Vertex 2 Zcoordinate
    1.899,                    !- Vertex 3 Xcoordinate
    15.418,                   !- Vertex 3 Ycoordinate
    0,                        !- Vertex 3 Zcoordinate
    1.899,                    !- Vertex 4 Xcoordinate
    15.418,                   !- Vertex 4 Ycoordinate
    9.865;                    !- Vertex 4 Zcoordinate

BUILDINGSURFACE:DETAILED,
    F_8,                      !- Name
    Wall,                     !- Surface Type
    C_F,                      !- Construction Name
    Zone_0599100000013573,    !- Zone Name
    ,                         !- Space Name
    Outdoors,                 !- Outside Boundary Condition
    ,                         !- Outside Boundary Condition Object
    SunExposed,               !- Sun Exposure
    WindExposed,              !- Wind Exposure
    0.5,                      !- View Factor to Ground
    4,                        !- Number of Vertices
    2.875,                    !- Vertex 1 Xcoordinate
    15.824,                   !- Vertex 1 Ycoordinate
    9.865,                    !- Vertex 1 Zcoordinate
    2.875,                    !- Vertex 2 Xcoordinate
    15.824,                   !- Vertex 2 Ycoordinate
    0,                        !- Vertex 2 Zcoordinate
    2.374,                    !- Vertex 3 Xcoordinate
    15.655,                   !- Vertex 3 Ycoordinate
    0,                        !- Vertex 3 Zcoordinate
    2.374,                    !- Vertex 4 Xcoordinate
    15.655,                   !- Vertex 4 Ycoordinate
    9.865;                    !- Vertex 4 Zcoordinate

BUILDINGSURFACE:DETAILED,
    F_9,                      !- Name
    Wall,                     !- Surface Type
    C_F,                      !- Construction Name
    Zone_0599100000013573,    !- Zone Name
    ,                         !- Space Name
    Outdoors,                 !- Outside Boundary Condition
    ,                         !- Outside Boundary Condition Object
    SunExposed,               !- Sun Exposure
    WindExposed,              !- Wind Exposure
    0.5,                      !- View Factor to Ground
    4,                        !- Number of Vertices
    3.396,                    !- Vertex 1 Xcoordinate
    15.923,                   !- Vertex 1 Ycoordinate
    9.865,                    !- Vertex 1 Zcoordinate
    3.396,                    !- Vertex 2 Xcoordinate
    15.923,                   !- Vertex 2 Ycoordinate
    0,                        !- Vertex 2 Zcoordinate
    2.875,                    !- Vertex 3 Xcoordinate
    15.824,                   !- Vertex 3 Ycoordinate
    0,                        !- Vertex 3 Zcoordinate
    2.875,                    !- Vertex 4 Xcoordinate
    15.824,                   !- Vertex 4 Ycoordinate
    9.865;                    !- Vertex 4 Zcoordinate

BUILDINGSURFACE:DETAILED,
    F_10,                     !- Name
    Wall,                     !- Surface Type
    C_F,                      !- Construction Name
    Zone_0599100000013573,    !- Zone Name
    ,                         !- Space Name
    Outdoors,                 !- Outside Boundary Condition
    ,                         !- Outside Boundary Condition Object
    SunExposed,               !- Sun Exposure
    WindExposed,              !- Wind Exposure
    0.5,                      !- View Factor to Ground
    4,                        !- Number of Vertices
    1.461,                    !- Vertex 1 Xcoordinate
    15.117,                   !- Vertex 1 Ycoordinate
    9.865,                    !- Vertex 1 Zcoordinate
    1.461,                    !- Vertex 2 Xcoordinate
    15.117,                   !- Vertex 2 Ycoordinate
    0,                        !- Vertex 2 Zcoordinate
    1.069,                    !- Vertex 3 Xcoordinate
    14.762,                   !- Vertex 3 Ycoordinate
    0,                        !- Vertex 3 Zcoordinate
    1.069,                    !- Vertex 4 Xcoordinate
    14.762,                   !- Vertex 4 Ycoordinate
    9.865;                    !- Vertex 4 Zcoordinate

BUILDINGSURFACE:DETAILED,
    F_11,                     !- Name
    Wall,                     !- Surface Type
    C_F,                      !- Construction Name
    Zone_0599100000013573,    !- Zone Name
    ,                         !- Space Name
    Outdoors,                 !- Outside Boundary Condition
    ,                         !- Outside Boundary Condition Object
    SunExposed,               !- Sun Exposure
    WindExposed,              !- Wind Exposure
    0.5,                      !- View Factor to Ground
    4,                        !- Number of Vertices
    1.069,                    !- Vertex 1 Xcoordinate
    14.762,                   !- Vertex 1 Ycoordinate
    9.865,                    !- Vertex 1 Zcoordinate
    1.069,                    !- Vertex 2 Xcoordinate
    14.762,                   !- Vertex 2 Ycoordinate
    0,                        !- Vertex 2 Zcoordinate
    0.728,                    !- Vertex 3 Xcoordinate
    14.354,                   !- Vertex 3 Ycoordinate
    0,                        !- Vertex 3 Zcoordinate
    0.728,                    !- Vertex 4 Xcoordinate
    14.354,                   !- Vertex 4 Ycoordinate
    9.865;                    !- Vertex 4 Zcoordinate

BUILDINGSURFACE:DETAILED,
    F_12,                     !- Name
    Wall,                     !- Surface Type
    C_F,                      !- Construction Name
    Zone_0599100000013573,    !- Zone Name
    ,                         !- Space Name
    Outdoors,                 !- Outside Boundary Condition
    ,                         !- Outside Boundary Condition Object
    SunExposed,               !- Sun Exposure
    WindExposed,              !- Wind Exposure
    0.5,                      !- View Factor to Ground
    4,                        !- Number of Vertices
    0.728,                    !- Vertex 1 Xcoordinate
    14.354,                   !- Vertex 1 Ycoordinate
    9.865,                    !- Vertex 1 Zcoordinate
    0.728,                    !- Vertex 2 Xcoordinate
    14.354,                   !- Vertex 2 Ycoordinate
    0,                        !- Vertex 2 Zcoordinate
    0.448,                    !- Vertex 3 Xcoordinate
    13.905,                   !- Vertex 3 Ycoordinate
    0,                        !- Vertex 3 Zcoordinate
    0.448,                    !- Vertex 4 Xcoordinate
    13.905,                   !- Vertex 4 Ycoordinate
    9.865;                    !- Vertex 4 Zcoordinate

BUILDINGSURFACE:DETAILED,
    F_13,                     !- Name
    Wall,                     !- Surface Type
    C_F,                      !- Construction Name
    Zone_0599100000013573,    !- Zone Name
    ,                         !- Space Name
    Outdoors,                 !- Outside Boundary Condition
    ,                         !- Outside Boundary Condition Object
    SunExposed,               !- Sun Exposure
    WindExposed,              !- Wind Exposure
    0.5,                      !- View Factor to Ground
    4,                        !- Number of Vertices
    0.231,                    !- Vertex 1 Xcoordinate
    13.42,                    !- Vertex 1 Ycoordinate
    9.865,                    !- Vertex 1 Zcoordinate
    0.231,                    !- Vertex 2 Xcoordinate
    13.42,                    !- Vertex 2 Ycoordinate
    0,                        !- Vertex 2 Zcoordinate
    0.082,                    !- Vertex 3 Xcoordinate
    12.911,                   !- Vertex 3 Ycoordinate
    0,                        !- Vertex 3 Zcoordinate
    0.082,                    !- Vertex 4 Xcoordinate
    12.911,                   !- Vertex 4 Ycoordinate