!- Windows Line endings 

Version,
    24.2;                     !- Version Identifier

SimulationControl,
    No,                       !- Do Zone Sizing Calculation
    No,                       !- Do System Sizing Calculation
    No,                       !- Do Plant Sizing Calculation
    No,                       !- Run Simulation for Sizing Periods
    Yes,                      !- Run Simulation for Weather File Run Periods
    No,                       !- Do HVAC Sizing Simulation for Sizing Periods
    1;                        !- Maximum Number of HVAC Sizing Simulation Passes

BUILDING,
    Pand.0599100000753972,    !- Name
    0,                        !- North Axis
    City,                     !- Terrain
    0.04,                     !- Loads Convergence Tolerance Value
    0.4,                      !- Temperature Convergence Tolerance Value
    FullExterior,             !- Solar Distribution
    25,                       !- Maximum Number of Warmup Days
    1;                        !- Minimum Number of Warmup Days

Timestep,
    6;                        !- Number of Timesteps per Hour

Site:Location,
    Rotterdam.The.Hague.AP_ZH_NLD Design_Conditions,    !- Name
    51.96,                    !- Latitude
    4.45,                     !- Longitude
    1,                        !- Time Zone
    -4.5;                     !- Elevation

RunPeriod,
    Run Period 1,             !- Name
    1,                        !- Begin Month
    1,                        !- Begin Day of Month
    ,                         !- Begin Year
    12,                       !- End Month
    31,                       !- End Day of Month
    ,                         !- End Year
    ,                         !- Day of Week for Start Day
    Yes,                      !- Use Weather File Holidays and Special Days
    Yes,                      !- Use Weather File Daylight Saving Period
    No,                       !- Apply Weekend Holiday Rule
    Yes,                      !- Use Weather File Rain Indicators
    Yes,                      !- Use Weather File Snow Indicators
    No,                       !- Treat Weather as Actual
    Hour24;                   !- First Hour Interpolation Starting Values

RunPeriodControl:DaylightSavingTime,
    Last Sunday in March,     !- Start Date
    Last Sunday in October;    !- End Date

SITE:GROUNDTEMPERATURE:BUILDINGSURFACE,
    18,                       !- January Ground Temperature
    18,                       !- February Ground Temperature
    18,                       !- March Ground Temperature
    18,                       !- April Ground Temperature
    18,                       !- May Ground Temperature
    18,                       !- June Ground Temperature
    18,                       !- July Ground Temperature
    18,                       !- August Ground Temperature
    18,                       !- September Ground Temperature
    18,                       !- October Ground Temperature
    18,                       !- November Ground Temperature
    18;                       !- December Ground Temperature

SCHEDULETYPELIMITS,
    Temperature,              !- Name
    -100,                     !- Lower Limit Value
    100,                      !- Upper Limit Value
    CONTINUOUS,               !- Numeric Type
    Temperature;              !- Unit Type

SCHEDULETYPELIMITS,
    Fraction,                 !- Name
    0,                        !- Lower Limit Value
    1,                        !- Upper Limit Value
    CONTINUOUS,               !- Numeric Type
    Dimensionless;            !- Unit Type

SCHEDULETYPELIMITS,
    Control Type,             !- Name
    0,                        !- Lower Limit Value
    4,                        !- Upper Limit Value
    DISCRETE,                 !- Numeric Type
    Dimensionless;            !- Unit Type

SCHEDULE:COMPACT,
    HeatingSetpoint_Zone_0599100000753972,    !- Name
    Temperature,              !- Schedule Type Limits Name
    Through: 12/31,           !- Field 1
    For: AllDays,             !- Field 2
    Until: 24:00,             !- Field 3
    21.0;                     !- Field 4

SCHEDULE:COMPACT,
    CoolingSetpoint_Zone_0599100000753972,    !- Name
    Temperature,              !- Schedule Type Limits Name
    Through: 12/31,           !- Field 1
    For: AllDays,             !- Field 2
    Until: 24:00,             !- Field 3
    24.0;                     !- Field 4

SCHEDULE:COMPACT,
    DualSetpointControlType,    !- Name
    Control Type,             !- Schedule Type Limits Name
    Through: 12/31,           !- Field 1
    For: AllDays,             !- Field 2
    Until: 24:00,             !- Field 3
    4;                        !- Field 4

SCHEDULE:COMPACT,
    AlwaysOn,                 !- Name
    Fraction,                 !- Schedule Type Limits Name
    Through: 12/31,           !- Field 1
    For: AllDays,             !- Field 2
    Until: 24:00,             !- Field 3
    1.0;                      !- Field 4

MATERIAL,
    G.D.2006-2014,            !- Name
    MediumSmooth,             !- Roughness
    0.15,                     !- Thickness
    0.06,                     !- Conductivity
    540,                      !- Density
    1210,                     !- Specific Heat
    0.9,                      !- Thermal Absorptance
    0.7,                      !- Solar Absorptance
    0.7;                      !- Visible Absorptance

MATERIAL,
    F.D.2006-2014,            !- Name
    Rough,                    !- Roughness
    0.3,                      !- Thickness
    0.12,                     !- Conductivity
    1920,                     !- Density
    840,                      !- Specific Heat
    0.9,                      !- Thermal Absorptance
    0.7,                      !- Solar Absorptance
    0.7;                      !- Visible Absorptance

MATERIAL,
    R.D.2006-2014,            !- Name
    MediumRough,              !- Roughness
    0.2,                      !- Thickness
    0.08,                     !- Conductivity
    1500,                     !- Density
    1000,                     !- Specific Heat
    0.9,                      !- Thermal Absorptance
    0.7,                      !- Solar Absorptance
    0.7;                      !- Visible Absorptance

WINDOWMATERIAL:SIMPLEGLAZINGSYSTEM,
    W.D.2006-2014,            !- Name
    1.8,                      !- UFactor
    0.4,                      !- Solar Heat Gain Coefficient
    0.6;                      !- Visible Transmittance

CONSTRUCTION,
    C_G,                      !- Name
    G.D.2006-2014;            !- Outside Layer

CONSTRUCTION,
    C_F,                      !- Name
    F.D.2006-2014;            !- Outside Layer

CONSTRUCTION,
    C_R,                      !- Name
    R.D.2006-2014;            !- Outside Layer

GlobalGeometryRules,
    UpperLeftCorner,          !- Starting Vertex Position
    Counterclockwise,         !- Vertex Entry Direction
    World,                    !- Coordinate System
    World,                    !- Daylighting Reference Point Coordinate System
    Relative;                 !- Rectangular Surface Coordinate System

ZONE,
    Zone_0599100000753972,    !- Name
    0,                        !- Direction of Relative North
    0,                        !- X Origin
    0,                        !- Y Origin
    0,                        !- Z Origin
    1,                        !- Type
    1,                        !- Multiplier
    Autocalculate,            !- Ceiling Height
    Autocalculate,            !- Volume
    autocalculate,            !- Floor Area
    ,                         !- Zone Inside Convection Algorithm
    ,                         !- Zone Outside Convection Algorithm
    Yes;                      !- Part of Total Floor Area

BUILDINGSURFACE:DETAILED,
    G_0,                      !- Name
    Floor,                    !- Surface Type
    C_G,                      !- Construction Name
    Zone_0599100000753972,    !- Zone Name
    ,                         !- Space Name
    Ground,                   !- Outside Boundary Condition
    ,                         !- Outside Boundary Condition Object
    SunExposed,               !- Sun Exposure
    WindExposed,              !- Wind Exposure
    0.5,                      !- View Factor to Ground
    29,                       !- Number of Vertices
    0.537,                    !- Vertex 1 Xcoordinate
    14.1,                     !- Vertex 1 Ycoordinate
    0,                        !- Vertex 1 Zcoordinate
    1.578,                    !- Vertex 2 Xcoordinate
    14.568,                   !- Vertex 2 Ycoordinate
    0,                        !- Vertex 2 Zcoordinate
    0.405,                    !- Vertex 3 Xcoordinate
    17.176,                   !- Vertex 3 Ycoordinate
    0,                        !- Vertex 3 Zcoordinate
    0.484,                    !- Vertex 4 Xcoordinate
    17.272,                   !- Vertex 4 Ycoordinate
    0,                        !- Vertex 4 Zcoordinate
    0.106,                    !- Vertex 5 Xcoordinate
    18.128,                   !- Vertex 5 Ycoordinate
    0,                        !- Vertex 5 Zcoordinate
    10.434,                   !- Vertex 6 Xcoordinate
    22.769,                   !- Vertex 6 Ycoordinate
    0,                        !- Vertex 6 Zcoordinate
    10.672,                   !- Vertex 7 Xcoordinate
    22.262,                   !- Vertex 7 Ycoordinate
    0,                        !- Vertex 7 Zcoordinate
    10.841,                   !- Vertex 8 Xcoordinate
    22.303,                   !- Vertex 8 Ycoordinate
    0,                        !- Vertex 8 Zcoordinate
    13.956,                   !- Vertex 9 Xcoordinate
    15.371,                   !- Vertex 9 Ycoordinate
    0,                        !- Vertex 9 Zcoordinate
    13.539,                   !- Vertex 10 Xcoordinate
    15.533,                   !- Vertex 10 Ycoordinate
    0,                        !- Vertex 10 Zcoordinate
    13.477,                   !- Vertex 11 Xcoordinate
    15.672,                   !- Vertex 11 Ycoordinate
    0,                        !- Vertex 11 Zcoordinate
    10.67,                    !- Vertex 12 Xcoordinate
    14.422,                   !- Vertex 12 Ycoordinate
    0,                        !- Vertex 12 Zcoordinate
    12.39,                    !- Vertex 13 Xcoordinate
    10.594,                   !- Vertex 13 Ycoordinate
    0,                        !- Vertex 13 Zcoordinate
    12.245,                   !- Vertex 14 Xcoordinate
    10.514,                   !- Vertex 14 Ycoordinate
    0,                        !- Vertex 14 Zcoordinate
    12.352,                   !- Vertex 15 Xcoordinate
    10.284,                   !- Vertex 15 Ycoordinate
    0,                        !- Vertex 15 Zcoordinate
    10.648,                   !- Vertex 16 Xcoordinate
    9.522,                    !- Vertex 16 Ycoordinate
    0,                        !- Vertex 16 Zcoordinate
    10.608,                   !- Vertex 17 Xcoordinate
    9.612,                    !- Vertex 17 Ycoordinate
    0,                        !- Vertex 17 Zcoordinate
    9.576,                    !- Vertex 18 Xcoordinate
    9.043,                    !- Vertex 18 Ycoordinate
    0,                        !- Vertex 18 Zcoordinate
    7.553,                    !- Vertex 19 Xcoordinate
    8.14,                     !- Vertex 19 Ycoordinate
    0,                        !- Vertex 19 Zcoordinate
    10.097,                   !- Vertex 20 Xcoordinate
    2.509,                    !- Vertex 20 Ycoordinate
    0,                        !- Vertex 20 Zcoordinate
    4.548,                    !- Vertex 21 Xcoordinate
    0,                        !- Vertex 21 Ycoordinate
    0,                        !- Vertex 21 Zcoordinate
    2.279,                    !- Vertex 22 Xcoordinate
    5.022,                    !- Vertex 22 Ycoordinate
    0,                        !- Vertex 22 Zcoordinate
    2.438,                    !- Vertex 23 Xcoordinate
    5.11,                     !- Vertex 23 Ycoordinate
    0,                        !- Vertex 23 Zcoordinate
    2.357,                    !- Vertex 24 Xcoordinate
    5.317,                    !- Vertex 24 Ycoordinate
    0,                        !- Vertex 24 Zcoordinate
    5.18,                     !- Vertex 25 Xcoordinate
    6.592,                    !- Vertex 25 Ycoordinate
    0,                        !- Vertex 25 Zcoordinate
    3.123,                    !- Vertex 26 Xcoordinate
    11.149,                   !- Vertex 26 Ycoordinate
    0,                        !- Vertex 26 Zcoordinate
    2.102,                    !- Vertex 27 Xcoordinate
    10.616,                   !- Vertex 27 Ycoordinate
    0,                        !- Vertex 27 Zcoordinate
    1.023,                    !- Vertex 28 Xcoordinate
    11.033,                   !- Vertex 28 Ycoordinate
    0,                        !- Vertex 28 Zcoordinate
    0.087,                    !- Vertex 29 Xcoordinate
    13.106,                   !- Vertex 29 Ycoordinate
    0;                        !- Vertex 29 Zcoordinate

BUILDINGSURFACE:DETAILED,
    F_1,                      !- Name
    Wall,                     !- Surface Type
    C_F,                      !- Construction Name
    Zone_0599100000753972,    !- Zone Name
    ,                         !- Space Name
    Outdoors,                 !- Outside Boundary Condition
    ,                         !- Outside Boundary Condition Object
    SunExposed,               !- Sun Exposure
    WindExposed,              !- Wind Exposure
    0.5,                      !- View Factor to Ground
    4,                        !- Number of Vertices
    1.578,                    !- Vertex 1 Xcoordinate
    14.568,                   !- Vertex 1 Ycoordinate
    6.325,                    !- Vertex 1 Zcoordinate
    1.578,                    !- Vertex 2 Xcoordinate
    14.568,                   !- Vertex 2 Ycoordinate
    0,                        !- Vertex 2 Zcoordinate
    0.537,                    !- Vertex 3 Xcoordinate
    14.1,                     !- Vertex 3 Ycoordinate
    0,                        !- Vertex 3 Zcoordinate
    0.537,                    !- Vertex 4 Xcoordinate
    14.1,                     !- Vertex 4 Ycoordinate
    6.325;                    !- Vertex 4 Zcoordinate

BUILDINGSURFACE:DETAILED,
    F_2,                      !- Name
    Wall,                     !- Surface Type
    C_F,                      !- Construction Name
    Zone_0599100000753972,    !- Zone Name
    ,                         !- Space Name
    Outdoors,                 !- Outside Boundary Condition
    ,                         !- Outside Boundary Condition Object
    SunExposed,               !- Sun Exposure
    WindExposed,              !- Wind Exposure
    0.5,                      !- View Factor to Ground
    4,                        !- Number of Vertices
    0.537,                    !- Vertex 1 Xcoordinate
    14.1,                     !- Vertex 1 Ycoordinate
    6.325,                    !- Vertex 1 Zcoordinate
    0.537,                    !- Vertex 2 Xcoordinate
    14.1,                     !- Vertex 2 Ycoordinate
    0,                        !- Vertex 2 Zcoordinate
    0.087,                    !- Vertex 3 Xcoordinate
    13.106,                   !- Vertex 3 Ycoordinate
    0,                        !- Vertex 3 Zcoordinate
    0.087,                    !- Vertex 4 Xcoordinate
    13.106,                   !- Vertex 4 Ycoordinate
    6.325;                    !- Vertex 4 Zcoordinate

BUILDINGSURFACE:DETAILED,
    F_3,                      !- Name
    Wall,                     !- Surface Type
    C_F,                      !- Construction Name
    Zone_0599100000753972,    !- Zone Name
    ,                         !- Space Name
    Outdoors,                 !- Outside Boundary Condition
    ,                         !- Outside Boundary Condition Object
    SunExposed,               !- Sun Exposure
    WindExposed,              !- Wind Exposure
    0.5,                      !- View Factor to Ground
    4,                        !- Number of Vertices
    2.102,                    !- Vertex 1 Xcoordinate
    10.616,                   !- Vertex 1 Ycoordinate
    6.325,                    !- Vertex 1 Zcoordinate
    2.102,                    !- Vertex 2 Xcoordinate
    10.616,                   !- Vertex 2 Ycoordinate
    0,                        !- Vertex 2 Zcoordinate
    3.123,                    !- Vertex 3 Xcoordinate
    11.149,                   !- Vertex 3 Ycoordinate
    0,                        !- Vertex 3 Zcoordinate
    3.123,                    !- Vertex 4 Xcoordinate
    11.149,                   !- Vertex 4 Ycoordinate
    6.325;                    !- Vertex 4 Zcoordinate

BUILDINGSURFACE:DETAILED,
    F_4,                      !- Name
    Wall,                     !- Surface Type
    C_F,                      !- Construction Name
    Zone_0599100000753972,    !- Zone Name
    ,                         !- Space Name
    Outdoors,                 !- Outside Boundary Condition
    ,                         !- Outside Boundary Condition Object
    SunExposed,               !- Sun Exposure
    WindExposed,              !- Wind Exposure
    0.5,                      !- View Factor to Ground
    4,                        !- Number of Vertices
    1.023,                    !- Vertex 1 Xcoordinate
    11.033,                   !- Vertex 1 Ycoordinate
    6.325,                    !- Vertex 1 Zcoordinate
    1.023,                    !- Vertex 2 Xcoordinate
    11.033,                   !- Vertex 2 Ycoordinate
    0,                        !- Vertex 2 Zcoordinate
    2.102,                    !- Vertex 3 Xcoordinate
    10.616,                   !- Vertex 3 Ycoordinate
    0,                        !- Vertex 3 Zcoordinate
    2.102,                    !- Vertex 4 Xcoordinate
    10.616,                   !- Vertex 4 Ycoordinate
    6.325;                    !- Vertex 4 Zcoordinate

BUILDINGSURFACE:DETAILED,
    F_5,                      !- Name
    Wall,                     !- Surface Type
    C_F,                      !- Construction Name
    Zone_0599100000753972,    !- Zone Name
    ,                         !- Space Name
    Outdoors,                 !- Outside Boundary Condition
    ,                         !- Outside Boundary Condition Object
    SunExposed,               !- Sun Exposure
    WindExposed,              !- Wind Exposure
    0.5,                      !- View Factor to Ground
    4,                        !- Number of Vertices
    3.123,                    !- Vertex 1 Xcoordinate
    11.149,                   !- Vertex 1 Ycoordinate
    6.325,                    !- Vertex 1 Zcoordinate
    3.123,                    !- Vertex 2 Xcoordinate
    11.149,                   !- Vertex 2 Ycoordinate
    0,                        !- Vertex 2 Zcoordinate
    5.18,                     !- Vertex 3 Xcoordinate
    6.592,                    !- Vertex 3 Ycoordinate
    0,                        !- Vertex 3 Zcoordinate
    5.18,                     !- Vertex 4 Xcoordinate
    6.592,                    !- Vertex 4 Ycoordinate
    6.325;                    !- Vertex 4 Zcoordinate

BUILDINGSURFACE:DETAILED,
    F_6,                      !- Name
    Wall,                     !- Surface Type
    C_F,                      !- Construction Name
    Zone_0599100000753972,    !- Zone Name
    ,                         !- Space Name
    Outdoors,                 !- Outside Boundary Condition
    ,                         !- Outside Boundary Condition Object
    SunExposed,               !- Sun Exposure
    WindExposed,              !- Wind Exposure
    0.5,                      !- View Factor to Ground
    4,                        !- Number of Vertices
    5.18,                     !- Vertex 1 Xcoordinate
    6.592,                    !- Vertex 1 Ycoordinate
    6.325,                    !- Vertex 1 Zcoordinate
    5.18,                     !- Vertex 2 Xcoordinate
    6.592,                    !- Vertex 2 Ycoordinate
    0,                        !- Vertex 2 Zcoordinate
    2.357,                    !- Vertex 3 Xcoordinate
    5.317,                    !- Vertex 3 Ycoordinate
    0,                        !- Vertex 3 Zcoordinate
    2.357,                    !- Vertex 4 Xcoordinate
    5.317,                    !- Vertex 4 Ycoordinate
    6.325;                    !- Vertex 4 Zcoordinate

BUILDINGSURFACE:DETAILED,
    F_7,                      !- Name
    Wall,                     !- Surface Type
    C_F,                      !- Construction Name
    Zone_0599100000753972,    !- Zone Name
    ,                         !- Space Name
    Outdoors,                 !- Outside Boundary Condition
    ,                         !- Outside Boundary Condition Object
    SunExposed,               !- Sun Exposure
    WindExposed,              !- Wind Exposure
    0.5,                      !- View Factor to Ground
    4,                        !- Number of Vertices
    4.548,                    !- Vertex 1 Xcoordinate
    0,                        !- Vertex 1 Ycoordinate
    6.325,                    !- Vertex 1 Zcoordinate
    4.548,                    !- Vertex 2 Xcoordinate
    0,                        !- Vertex 2 Ycoordinate
    0,                        !- Vertex 2 Zcoordinate
    10.097,                   !- Vertex 3 Xcoordinate
    2.509,                    !- Vertex 3 Ycoordinate
    0,                        !- Vertex 3 Zcoordinate
    10.097,                   !- Vertex 4 Xcoordinate
    2.509,                    !- Vertex 4 Ycoordinate
    6.325;                    !- Vertex 4 Zcoordinate

BUILDINGSURFACE:DETAILED,
    F_8,                      !- Name
    Wall,                     !- Surface Type
    C_F,                      !- Construction Name
    Zone_0599100000753972,    !- Zone Name
    ,                         !- Space Name
    Outdoors,                 !- Outside Boundary Condition
    ,                         !- Outside Boundary Condition Object
    SunExposed,               !- Sun Exposure
    WindExposed,              !- Wind Exposure
    0.5,                      !- View Factor to Ground
    4,                        !- Number of Vertices
    0.087,                    !- Vertex 1 Xcoordinate
    13.106,                   !- Vertex 1 Ycoordinate
    6.325,                    !- Vertex 1 Zcoordinate
    0.087,                    !- Vertex 2 Xcoordinate
    13.106,                   !- Vertex 2 Ycoordinate
    0,                        !- Vertex 2 Zcoordinate
    1.023,                    !- Vertex 3 Xcoordinate
    11.033,                   !- Vertex 3 Ycoordinate
    0,                        !- Vertex 3 Zcoordinate
    1.023,                    !- Vertex 4 Xcoordinate
    11.033,                   !- Vertex 4 Ycoordinate
    6.325;                    !- Vertex 4 Zcoordinate

BUILDINGSURFACE:DETAILED,
    F_9,                      !- Name
    Wall,                     !- Surface Type
    C_F,                      !- Construction Name
    Zone_0599100000753972,    !- Zone Name
    ,                         !- Space Name
    Outdoors,                 !- Outside Boundary Condition
    ,                         !- Outside Boundary Condition Object
    SunExposed,               !- Sun Exposure
    WindExposed,              !- Wind Exposure
    0.5,                      !- View Factor to Ground
    4,                        !- Number of Vertices
    10.67,                    !- Vertex 1 Xcoordinate
    14.422,                   !- Vertex 1 Ycoordinate
    6.325,                    !- Vertex 1 Zcoordinate
    10.67,                    !- Vertex 2 Xcoordinate
    14.422,                   !- Vertex 2 Ycoordinate
    0,                        !- Vertex 2 Zcoordinate
    13.477,                   !- Vertex 3 Xcoordinate
    15.672,                   !- Vertex 3 Ycoordinate
    0,                        !- Vertex 3 Zcoordinate
    13.477,                   !- Vertex 4 Xcoordinate
    15.672,                   !- Vertex 4 Ycoordinate
    6.325;                    !- Vertex 4 Zcoordinate

BUILDINGSURFACE:DETAILED,
    F_10,                     !- Name
    Wall,                     !- Surface Type
    C_F,                      !- Construction Name
    Zone_0599100000753972,    !- Zone Name
    ,                         !- Space Name
    Outdoors,                 !- Outside Boundary Condition
    ,                         !- Outside Boundary Condition Object
    SunExposed,               !- Sun Exposure
    WindExposed,              !- Wind Exposure
    0.5,                      !- View Factor to Ground
    4,                        !- Number of Vertices
    13.477,                   !- Vertex 1 Xcoordinate
    15.672,                   !- Vertex 1 Ycoordinate
    6.325,                    !- Vertex 1 Zcoordinate
    13.477,                   !- Vertex 2 Xcoordinate
    15.672,                   !- Vertex 2 Ycoordinate
    0,                        !- Vertex 2 Zcoordinate
    13.539,                   !- Vertex 3 Xcoordinate
    15.533,                   !- Vertex 3 Ycoordinate
    0,                        !- Vertex 3 Zcoordinate
    13.539,                   !- Vertex 4 Xcoordinate
    15.533,                   !- Vertex 4 Ycoordinate
    6.325;                    !- Vertex 4 Zcoordinate

BUILDINGSURFACE:DETAILED,
    F_11,                     !- Name
    Wall,                     !- Surface Type
    C_F,                      !- Construction Name
    Zone_0599100000753972,    !- Zone Name
    ,                         !- Space Name
    Outdoors,                 !- Outside Boundary Condition
    ,                         !- Outside Boundary Condition Object
    SunExposed,               !- Sun Exposure
    WindExposed,              !- Wind Exposure
    0.5,                      !- View Factor to Ground
    4,                        !- Number of Vertices
    10.097,                   !- Vertex 1 Xcoordinate
    2.509,                    !- Vertex 1 Ycoordinate
    6.325,                    !- Vertex 1 Zcoordinate
    10.097,                   !- Vertex 2 Xcoordinate
    2.509,                    !- Vertex 2 Ycoordinate
    0,                        !- Vertex 2 Zcoordinate
    7.553,                    !- Vertex 3 Xcoordinate
    8.14,                     !- Vertex 3 Ycoordinate
    0,                        !- Vertex 3 Zcoordinate
    7.553,                    !- Vertex 4 Xcoordinate
    8.14,                     !- Vertex 4 Ycoordinate
    6.325;                    !- Vertex 4 Zcoordinate

BUILDINGSURFACE:DETAILED,
    F_12,                     !- Name
    Wall,                     !- Surface Type
    C_F,                      !- Construction Name
    Zone_0599100000753972,    !- Zone Name
    ,                         !- Space Name
    Outdoors,                 !- Outside Boundary Condition
    ,                         !- Outside Boundary Condition Object
    SunExposed,               !- Sun Exposure
    WindExposed,              !- Wind Exposure
    0.5,                      !- View Factor to Ground
    4,                        !- Number of Vertices
    12.39,                    !- Vertex 1 Xcoordinate
    10.594,                   !- Vertex 1 Ycoordinate
    6.325,                    !- Vertex 1 Zcoordinate
    12.39,                    !- Vertex 2 Xcoordinate
    10.594,                   !- Vertex 2 Ycoordinate
    0,                        !- Vertex 2 Zcoordinate
    10.67,                    !- Vertex 3 Xcoordinate
    14.422,                   !- Vertex 3 Ycoordinate
    0,                        !- Vertex 3 Zcoordinate
    10.67,                    !- Vertex 4 Xcoordinate
    14.422,                   !- Vertex 4 Ycoordinate
    6.325;                    !- Vertex 4 Zcoordinate

BUILDINGSURFACE:DETAILED,
    F_13,                     !- Name
    Wall,                     !- Surface Type
    C_F,                      !- Construction Name
    Zone_0599100000753972,    !- Zone Name
    ,                         !- Space Name
    Outdoors,                 !- Outside Boundary Condition
    ,                         !- Outside Boundary Condition Object
    SunExposed,               !- Sun Exposure
    WindExposed,              !- Wind Exposure
    0.5,                      !- View Factor to Ground
    4,                        !- Number of Vertices
    13.539,                   !- Vertex 1 Xcoordinate
    15.533,                   !- Vertex 1 Ycoordinate
    6.325,                    !- Vertex 1 Zcoordinate
    13.539,                   !- Vertex 2 Xcoordinate
    15.533,                   !- Vertex 2 Ycoordinate
    0,                        !- Vertex 2 Zcoordinate
    13.956,                   !- Vertex 3 Xcoordinate
    15.371,                   !- Vertex 3 Ycoordinate
    0,                        !- Vertex 3 Zcoordinate
    13.956,                   !- Vertex 4 Xcoordinate
    15.371,                   !- Vertex 4 Ycoordinate
    6.325;                    !- Vertex 4 Zcoordinate

BUILDINGSURFACE:DETAILED,
    F_14,                     !- Name
    Wall,                     !- Surface Type
    C_F,                      !- Construction Name
    Zone_0599100000753972,    !- Zone Name
    ,                         !- Space Name
    Outdoors,                 !- Outside Boundary Condition
    ,                         !- Outside Boundary Condition Object
    SunExposed,               !- Sun Exposure
    WindExposed,              !- Wind Exposure
    0.5,                      !- View Factor to Ground
    4,                        !- Number of Vertices
    10.841,                   !- Vertex 1 Xcoordinate
    22.303,                   !- Vertex 1 Ycoordinate
    6.325,                    !- Vertex 1 Zcoordinate
    10.841,                   !- Vertex 2 Xcoordinate
    22.303,                   !- Vertex 2 Ycoordinate
    0,                        !- Vertex 2 Zcoordinate
    10.672,                   !- Vertex 3 Xcoordinate