!- Windows Line endings 

Version,
    24.2;                     !- Version Identifier

SimulationControl,
    No,                       !- Do Zone Sizing Calculation
    No,                       !- Do System Sizing Calculation
    No,                       !- Do Plant Sizing Calculation
    No,                       !- Run Simulation for Sizing Periods
    Yes,                      !- Run Simulation for Weather File Run Periods
    No,                       !- Do HVAC Sizing Simulation for Sizing Periods
    1;                        !- Maximum Number of HVAC Sizing Simulation Passes

BUILDING,
    Pand.0599100100001527,    !- Name
    0,                        !- North Axis
    City,                     !- Terrain
    0.04,                     !- Loads Convergence Tolerance Value
    0.4,                      !- Temperature Convergence Tolerance Value
    FullExterior,             !- Solar Distribution
    25,                       !- Maximum Number of Warmup Days
    1;                        !- Minimum Number of Warmup Days

Timestep,
    6;                        !- Number of Timesteps per Hour

Site:Location,
    Rotterdam.The.Hague.AP_ZH_NLD Design_Conditions,    !- Name
    51.96,                    !- Latitude
    4.45,                     !- Longitude
    1,                        !- Time Zone
    -4.5;                     !- Elevation

RunPeriod,
    Run Period 1,             !- Name
    1,                        !- Begin Month
    1,                        !- Begin Day of Month
    ,                         !- Begin Year
    12,                       !- End Month
    31,                       !- End Day of Month
    ,                         !- End Year
    ,                         !- Day of Week for Start Day
    Yes,                      !- Use Weather File Holidays and Special Days
    Yes,                      !- Use Weather File Daylight Saving Period
    No,                       !- Apply Weekend Holiday Rule
    Yes,                      !- Use Weather File Rain Indicators
    Yes,                      !- Use Weather File Snow Indicators
    No,                       !- Treat Weather as Actual
    Hour24;                   !- First Hour Interpolation Starting Values

RunPeriodControl:DaylightSavingTime,
    Last Sunday in March,     !- Start Date
    Last Sunday in October;    !- End Date

SITE:GROUNDTEMPERATURE:BUILDINGSURFACE,
    18,                       !- January Ground Temperature
    18,                       !- February Ground Temperature
    18,                       !- March Ground Temperature
    18,                       !- April Ground Temperature
    18,                       !- May Ground Temperature
    18,                       !- June Ground Temperature
    18,                       !- July Ground Temperature
    18,                       !- August Ground Temperature
    18,                       !- September Ground Temperature
    18,                       !- October Ground Temperature
    18,                       !- November Ground Temperature
    18;                       !- December Ground Temperature

SCHEDULETYPELIMITS,
    Temperature,              !- Name
    -100,                     !- Lower Limit Value
    100,                      !- Upper Limit Value
    CONTINUOUS,               !- Numeric Type
    Temperature;              !- Unit Type

SCHEDULETYPELIMITS,
    Fraction,                 !- Name
    0,                        !- Lower Limit Value
    1,                        !- Upper Limit Value
    CONTINUOUS,               !- Numeric Type
    Dimensionless;            !- Unit Type

SCHEDULETYPELIMITS,
    Control Type,             !- Name
    0,                        !- Lower Limit Value
    4,                        !- Upper Limit Value
    DISCRETE,                 !- Numeric Type
    Dimensionless;            !- Unit Type

SCHEDULE:COMPACT,
    HeatingSetpoint_Zone_0599100100001527,    !- Name
    Temperature,              !- Schedule Type Limits Name
    Through: 12/31,           !- Field 1
    For: AllDays,             !- Field 2
    Until: 24:00,             !- Field 3
    21.0;                     !- Field 4

SCHEDULE:COMPACT,
    CoolingSetpoint_Zone_0599100100001527,    !- Name
    Temperature,              !- Schedule Type Limits Name
    Through: 12/31,           !- Field 1
    For: AllDays,             !- Field 2
    Until: 24:00,             !- Field 3
    24.0;                     !- Field 4

SCHEDULE:COMPACT,
    DualSetpointControlType,    !- Name
    Control Type,             !- Schedule Type Limits Name
    Through: 12/31,           !- Field 1
    For: AllDays,             !- Field 2
    Until: 24:00,             !- Field 3
    4;                        !- Field 4

SCHEDULE:COMPACT,
    AlwaysOn,                 !- Name
    Fraction,                 !- Schedule Type Limits Name
    Through: 12/31,           !- Field 1
    For: AllDays,             !- Field 2
    Until: 24:00,             !- Field 3
    1.0;                      !- Field 4

MATERIAL,
    G.D.2006-2014,            !- Name
    MediumSmooth,             !- Roughness
    0.15,                     !- Thickness
    0.06,                     !- Conductivity
    540,                      !- Density
    1210,                     !- Specific Heat
    0.9,                      !- Thermal Absorptance
    0.7,                      !- Solar Absorptance
    0.7;                      !- Visible Absorptance

MATERIAL,
    F.D.2006-2014,            !- Name
    Rough,                    !- Roughness
    0.3,                      !- Thickness
    0.12,                     !- Conductivity
    1920,                     !- Density
    840,                      !- Specific Heat
    0.9,                      !- Thermal Absorptance
    0.7,                      !- Solar Absorptance
    0.7;                      !- Visible Absorptance

MATERIAL,
    R.D.2006-2014,            !- Name
    MediumRough,              !- Roughness
    0.2,                      !- Thickness
    0.08,                     !- Conductivity
    1500,                     !- Density
    1000,                     !- Specific Heat
    0.9,                      !- Thermal Absorptance
    0.7,                      !- Solar Absorptance
    0.7;                      !- Visible Absorptance

WINDOWMATERIAL:SIMPLEGLAZINGSYSTEM,
    W.D.2006-2014,            !- Name
    1.8,                      !- UFactor
    0.4,                      !- Solar Heat Gain Coefficient
    0.6;                      !- Visible Transmittance

CONSTRUCTION,
    C_G,                      !- Name
    G.D.2006-2014;            !- Outside Layer

CONSTRUCTION,
    C_F,                      !- Name
    F.D.2006-2014;            !- Outside Layer

CONSTRUCTION,
    C_R,                      !- Name
    R.D.2006-2014;            !- Outside Layer

GlobalGeometryRules,
    UpperLeftCorner,          !- Starting Vertex Position
    Counterclockwise,         !- Vertex Entry Direction
    World,                    !- Coordinate System
    World,                    !- Daylighting Reference Point Coordinate System
    Relative;                 !- Rectangular Surface Coordinate System

ZONE,
    Zone_0599100100001527,    !- Name
    0,                        !- Direction of Relative North
    0,                        !- X Origin
    0,                        !- Y Origin
    0,                        !- Z Origin
    1,                        !- Type
    1,                        !- Multiplier
    Autocalculate,            !- Ceiling Height
    Autocalculate,            !- Volume
    autocalculate,            !- Floor Area
    ,                         !- Zone Inside Convection Algorithm
    ,                         !- Zone Outside Convection Algorithm
    Yes;                      !- Part of Total Floor Area

BUILDINGSURFACE:DETAILED,
    G_0,                      !- Name
    Floor,                    !- Surface Type
    C_G,                      !- Construction Name
    Zone_0599100100001527,    !- Zone Name
    ,                         !- Space Name
    Ground,                   !- Outside Boundary Condition
    ,                         !- Outside Boundary Condition Object
    SunExposed,               !- Sun Exposure
    WindExposed,              !- Wind Exposure
    0.5,                      !- View Factor to Ground
    38,                       !- Number of Vertices
    6.092,                    !- Vertex 1 Xcoordinate
    13.585,                   !- Vertex 1 Ycoordinate
    0,                        !- Vertex 1 Zcoordinate
    7.147,                    !- Vertex 2 Xcoordinate
    13.616,                   !- Vertex 2 Ycoordinate
    0,                        !- Vertex 2 Zcoordinate
    7.13,                     !- Vertex 3 Xcoordinate
    14.088,                   !- Vertex 3 Ycoordinate
    0,                        !- Vertex 3 Zcoordinate
    8.484,                    !- Vertex 4 Xcoordinate
    14.14,                    !- Vertex 4 Ycoordinate
    0,                        !- Vertex 4 Zcoordinate
    8.65,                     !- Vertex 5 Xcoordinate
    9.586,                    !- Vertex 5 Ycoordinate
    0,                        !- Vertex 5 Zcoordinate
    8.848,                    !- Vertex 6 Xcoordinate
    9.596,                    !- Vertex 6 Ycoordinate
    0,                        !- Vertex 6 Zcoordinate
    8.859,                    !- Vertex 7 Xcoordinate
    9.366,                    !- Vertex 7 Ycoordinate
    0,                        !- Vertex 7 Zcoordinate
    8.609,                    !- Vertex 8 Xcoordinate
    9.356,                    !- Vertex 8 Ycoordinate
    0,                        !- Vertex 8 Zcoordinate
    8.702,                    !- Vertex 9 Xcoordinate
    6.953,                    !- Vertex 9 Ycoordinate
    0,                        !- Vertex 9 Zcoordinate
    11.955,                   !- Vertex 10 Xcoordinate
    7.017,                    !- Vertex 10 Ycoordinate
    0,                        !- Vertex 10 Zcoordinate
    11.95,                    !- Vertex 11 Xcoordinate
    7.216,                    !- Vertex 11 Ycoordinate
    0,                        !- Vertex 11 Zcoordinate
    12.489,                   !- Vertex 12 Xcoordinate
    7.232,                    !- Vertex 12 Ycoordinate
    0,                        !- Vertex 12 Zcoordinate
    12.734,                   !- Vertex 13 Xcoordinate
    0.014,                    !- Vertex 13 Ycoordinate
    0,                        !- Vertex 13 Zcoordinate
    12.315,                   !- Vertex 14 Xcoordinate
    0,                        !- Vertex 14 Ycoordinate
    0,                        !- Vertex 14 Zcoordinate
    12.299,                   !- Vertex 15 Xcoordinate
    0.399,                    !- Vertex 15 Ycoordinate
    0,                        !- Vertex 15 Zcoordinate
    11.241,                   !- Vertex 16 Xcoordinate
    0.363,                    !- Vertex 16 Ycoordinate
    0,                        !- Vertex 16 Zcoordinate
    11.25,                    !- Vertex 17 Xcoordinate
    0.203,                    !- Vertex 17 Ycoordinate
    0,                        !- Vertex 17 Zcoordinate
    8.122,                    !- Vertex 18 Xcoordinate
    0.123,                    !- Vertex 18 Ycoordinate
    0,                        !- Vertex 18 Zcoordinate
    8.111,                    !- Vertex 19 Xcoordinate
    0.986,                    !- Vertex 19 Ycoordinate
    0,                        !- Vertex 19 Zcoordinate
    6.549,                    !- Vertex 20 Xcoordinate
    0.941,                    !- Vertex 20 Ycoordinate
    0,                        !- Vertex 20 Zcoordinate
    6.578,                    !- Vertex 21 Xcoordinate
    0.42,                     !- Vertex 21 Ycoordinate
    0,                        !- Vertex 21 Zcoordinate
    4.585,                    !- Vertex 22 Xcoordinate
    0.344,                    !- Vertex 22 Ycoordinate
    0,                        !- Vertex 22 Zcoordinate
    4.57,                     !- Vertex 23 Xcoordinate
    0.872,                    !- Vertex 23 Ycoordinate
    0,                        !- Vertex 23 Zcoordinate
    0.588,                    !- Vertex 24 Xcoordinate
    0.703,                    !- Vertex 24 Ycoordinate
    0,                        !- Vertex 24 Zcoordinate
    0.463,                    !- Vertex 25 Xcoordinate
    4.365,                    !- Vertex 25 Ycoordinate
    0,                        !- Vertex 25 Zcoordinate
    0.312,                    !- Vertex 26 Xcoordinate
    4.36,                     !- Vertex 26 Ycoordinate
    0,                        !- Vertex 26 Zcoordinate
    0.237,                    !- Vertex 27 Xcoordinate
    6.947,                    !- Vertex 27 Ycoordinate
    0,                        !- Vertex 27 Zcoordinate
    0.387,                    !- Vertex 28 Xcoordinate
    6.951,                    !- Vertex 28 Ycoordinate
    0,                        !- Vertex 28 Zcoordinate
    0.271,                    !- Vertex 29 Xcoordinate
    10.091,                   !- Vertex 29 Ycoordinate
    0,                        !- Vertex 29 Zcoordinate
    0.122,                    !- Vertex 30 Xcoordinate
    10.081,                   !- Vertex 30 Ycoordinate
    0,                        !- Vertex 30 Zcoordinate
    0,                        !- Vertex 31 Xcoordinate
    13.379,                   !- Vertex 31 Ycoordinate
    0,                        !- Vertex 31 Zcoordinate
    1.583,                    !- Vertex 32 Xcoordinate
    13.437,                   !- Vertex 32 Ycoordinate
    0,                        !- Vertex 32 Zcoordinate
    1.588,                    !- Vertex 33 Xcoordinate
    13.277,                   !- Vertex 33 Ycoordinate
    0,                        !- Vertex 33 Zcoordinate
    2.658,                    !- Vertex 34 Xcoordinate
    13.318,                   !- Vertex 34 Ycoordinate
    0,                        !- Vertex 34 Zcoordinate
    2.652,                    !- Vertex 35 Xcoordinate
    13.482,                   !- Vertex 35 Ycoordinate
    0,                        !- Vertex 35 Zcoordinate
    5.025,                    !- Vertex 36 Xcoordinate
    13.553,                   !- Vertex 36 Ycoordinate
    0,                        !- Vertex 36 Zcoordinate
    5.031,                    !- Vertex 37 Xcoordinate
    13.397,                   !- Vertex 37 Ycoordinate
    0,                        !- Vertex 37 Zcoordinate
    6.098,                    !- Vertex 38 Xcoordinate
    13.438,                   !- Vertex 38 Ycoordinate
    0;                        !- Vertex 38 Zcoordinate

BUILDINGSURFACE:DETAILED,
    F_1,                      !- Name
    Wall,                     !- Surface Type
    C_F,                      !- Construction Name
    Zone_0599100100001527,    !- Zone Name
    ,                         !- Space Name
    Outdoors,                 !- Outside Boundary Condition
    ,                         !- Outside Boundary Condition Object
    SunExposed,               !- Sun Exposure
    WindExposed,              !- Wind Exposure
    0.5,                      !- View Factor to Ground
    4,                        !- Number of Vertices
    8.65,                     !- Vertex 1 Xcoordinate
    9.586,                    !- Vertex 1 Ycoordinate
    9.767,                    !- Vertex 1 Zcoordinate
    8.65,                     !- Vertex 2 Xcoordinate
    9.586,                    !- Vertex 2 Ycoordinate
    0,                        !- Vertex 2 Zcoordinate
    8.484,                    !- Vertex 3 Xcoordinate
    14.14,                    !- Vertex 3 Ycoordinate
    0,                        !- Vertex 3 Zcoordinate
    8.484,                    !- Vertex 4 Xcoordinate
    14.14,                    !- Vertex 4 Ycoordinate
    9.767;                    !- Vertex 4 Zcoordinate

BUILDINGSURFACE:DETAILED,
    F_2,                      !- Name
    Wall,                     !- Surface Type
    C_F,                      !- Construction Name
    Zone_0599100100001527,    !- Zone Name
    ,                         !- Space Name
    Outdoors,                 !- Outside Boundary Condition
    ,                         !- Outside Boundary Condition Object
    SunExposed,               !- Sun Exposure
    WindExposed,              !- Wind Exposure
    0.5,                      !- View Factor to Ground
    4,                        !- Number of Vertices
    2.658,                    !- Vertex 1 Xcoordinate
    13.318,                   !- Vertex 1 Ycoordinate
    9.767,                    !- Vertex 1 Zcoordinate
    2.658,                    !- Vertex 2 Xcoordinate
    13.318,                   !- Vertex 2 Ycoordinate
    0,                        !- Vertex 2 Zcoordinate
    1.588,                    !- Vertex 3 Xcoordinate
    13.277,                   !- Vertex 3 Ycoordinate
    0,                        !- Vertex 3 Zcoordinate
    1.588,                    !- Vertex 4 Xcoordinate
    13.277,                   !- Vertex 4 Ycoordinate
    9.767;                    !- Vertex 4 Zcoordinate

BUILDINGSURFACE:DETAILED,
    F_3,                      !- Name
    Wall,                     !- Surface Type
    C_F,                      !- Construction Name
    Zone_0599100100001527,    !- Zone Name
    ,                         !- Space Name
    Outdoors,                 !- Outside Boundary Condition
    ,                         !- Outside Boundary Condition Object
    SunExposed,               !- Sun Exposure
    WindExposed,              !- Wind Exposure
    0.5,                      !- View Factor to Ground
    4,                        !- Number of Vertices
    8.702,                    !- Vertex 1 Xcoordinate
    6.953,                    !- Vertex 1 Ycoordinate
    9.767,                    !- Vertex 1 Zcoordinate
    8.702,                    !- Vertex 2 Xcoordinate
    6.953,                    !- Vertex 2 Ycoordinate
    0,                        !- Vertex 2 Zcoordinate
    8.609,                    !- Vertex 3 Xcoordinate
    9.356,                    !- Vertex 3 Ycoordinate
    0,                        !- Vertex 3 Zcoordinate
    8.609,                    !- Vertex 4 Xcoordinate
    9.356,                    !- Vertex 4 Ycoordinate
    9.767;                    !- Vertex 4 Zcoordinate

BUILDINGSURFACE:DETAILED,
    F_4,                      !- Name
    Wall,                     !- Surface Type
    C_F,                      !- Construction Name
    Zone_0599100100001527,    !- Zone Name
    ,                         !- Space Name
    Outdoors,                 !- Outside Boundary Condition
    ,                         !- Outside Boundary Condition Object
    SunExposed,               !- Sun Exposure
    WindExposed,              !- Wind Exposure
    0.5,                      !- View Factor to Ground
    4,                        !- Number of Vertices
    5.025,                    !- Vertex 1 Xcoordinate
    13.553,                   !- Vertex 1 Ycoordinate
    9.767,                    !- Vertex 1 Zcoordinate
    5.025,                    !- Vertex 2 Xcoordinate
    13.553,                   !- Vertex 2 Ycoordinate
    0,                        !- Vertex 2 Zcoordinate
    2.652,                    !- Vertex 3 Xcoordinate
    13.482,                   !- Vertex 3 Ycoordinate
    0,                        !- Vertex 3 Zcoordinate
    2.652,                    !- Vertex 4 Xcoordinate
    13.482,                   !- Vertex 4 Ycoordinate
    9.767;                    !- Vertex 4 Zcoordinate

BUILDINGSURFACE:DETAILED,
    F_5,                      !- Name
    Wall,                     !- Surface Type
    C_F,                      !- Construction Name
    Zone_0599100100001527,    !- Zone Name
    ,                         !- Space Name
    Outdoors,                 !- Outside Boundary Condition
    ,                         !- Outside Boundary Condition Object
    SunExposed,               !- Sun Exposure
    WindExposed,              !- Wind Exposure
    0.5,                      !- View Factor to Ground
    4,                        !- Number of Vertices
    1.588,                    !- Vertex 1 Xcoordinate
    13.277,                   !- Vertex 1 Ycoordinate
    9.767,                    !- Vertex 1 Zcoordinate
    1.588,                    !- Vertex 2 Xcoordinate
    13.277,                   !- Vertex 2 Ycoordinate
    0,                        !- Vertex 2 Zcoordinate
    1.583,                    !- Vertex 3 Xcoordinate
    13.437,                   !- Vertex 3 Ycoordinate
    0,                        !- Vertex 3 Zcoordinate
    1.583,                    !- Vertex 4 Xcoordinate
    13.437,                   !- Vertex 4 Ycoordinate
    9.767;                    !- Vertex 4 Zcoordinate

BUILDINGSURFACE:DETAILED,
    F_6,                      !- Name
    Wall,                     !- Surface Type
    C_F,                      !- Construction Name
    Zone_0599100100001527,    !- Zone Name
    ,                         !- Space Name
    Outdoors,                 !- Outside Boundary Condition
    ,                         !- Outside Boundary Condition Object
    SunExposed,               !- Sun Exposure
    WindExposed,              !- Wind Exposure
    0.5,                      !- View Factor to Ground
    4,                        !- Number of Vertices
    1.583,                    !- Vertex 1 Xcoordinate
    13.437,                   !- Vertex 1 Ycoordinate
    9.767,                    !- Vertex 1 Zcoordinate
    1.583,                    !- Vertex 2 Xcoordinate
    13.437,                   !- Vertex 2 Ycoordinate
    0,                        !- Vertex 2 Zcoordinate
    0,                        !- Vertex 3 Xcoordinate
    13.379,                   !- Vertex 3 Ycoordinate
    0,                        !- Vertex 3 Zcoordinate
    0,                        !- Vertex 4 Xcoordinate
    13.379,                   !- Vertex 4 Ycoordinate
    9.767;                    !- Vertex 4 Zcoordinate

BUILDINGSURFACE:DETAILED,
    F_7,                      !- Name
    Wall,                     !- Surface Type
    C_F,                      !- Construction Name
    Zone_0599100100001527,    !- Zone Name
    ,                         !- Space Name
    Outdoors,                 !- Outside Boundary Condition
    ,                         !- Outside Boundary Condition Object
    SunExposed,               !- Sun Exposure
    WindExposed,              !- Wind Exposure
    0.5,                      !- View Factor to Ground
    4,                        !- Number of Vertices
    5.031,                    !- Vertex 1 Xcoordinate
    13.397,                   !- Vertex 1 Ycoordinate
    9.767,                    !- Vertex 1 Zcoordinate
    5.031,                    !- Vertex 2 Xcoordinate
    13.397,                   !- Vertex 2 Ycoordinate
    0,                        !- Vertex 2 Zcoordinate
    5.025,                    !- Vertex 3 Xcoordinate
    13.553,                   !- Vertex 3 Ycoordinate
    0,                        !- Vertex 3 Zcoordinate
    5.025,                    !- Vertex 4 Xcoordinate
    13.553,                   !- Vertex 4 Ycoordinate
    9.767;                    !- Vertex 4 Zcoordinate

BUILDINGSURFACE:DETAILED,
    F_8,                      !- Name
    Wall,                     !- Surface Type
    C_F,                      !- Construction Name
    Zone_0599100100001527,    !- Zone Name
    ,                         !- Space Name
    Outdoors,                 !- Outside Boundary Condition
    ,                         !- Outside Boundary Condition Object
    SunExposed,               !- Sun Exposure
    WindExposed,              !- Wind Exposure
    0.5,                      !- View Factor to Ground
    4,                        !- Number of Vertices
    0.122,                    !- Vertex 1 Xcoordinate
    10.081,                   !- Vertex 1 Ycoordinate
    9.767,                    !- Vertex 1 Zcoordinate
    0.122,                    !- Vertex 2 Xcoordinate
    10.081,                   !- Vertex 2 Ycoordinate
    0,                        !- Vertex 2 Zcoordinate
    0.271,                    !- Vertex 3 Xcoordinate
    10.091,                   !- Vertex 3 Ycoordinate
    0,                        !- Vertex 3 Zcoordinate
    0.271,                    !- Vertex 4 Xcoordinate
    10.091,                   !- Vertex 4 Ycoordinate
    9.767;                    !- Vertex 4 Zcoordinate

BUILDINGSURFACE:DETAILED,
    F_9,                      !- Name
    Wall,                     !- Surface Type
    C_F,                      !- Construction Name
    Zone_0599100100001527,    !- Zone Name
    ,                         !- Space Name
    Outdoors,                 !- Outside Boundary Condition
    ,                         !- Outside Boundary Condition Object
    SunExposed,               !- Sun Exposure
    WindExposed,              !- Wind Exposure
    0.5,                      !- View Factor to Ground
    4,                        !- Number of Vertices
    0,                        !- Vertex 1 Xcoordinate
    13.379,                   !- Vertex 1 Ycoordinate
    9.767,                    !- Vertex 1 Zcoordinate
    0,                        !- Vertex 2 Xcoordinate
    13.379,                   !- Vertex 2 Ycoordinate
    0,                        !- Vertex 2 Zcoordinate
    0.122,                    !- Vertex 3 Xcoordinate
    10.081,                   !- Vertex 3 Ycoordinate
    0,                        !- Vertex 3 Zcoordinate
    0.122,                    !- Vertex 4 Xcoordinate
    10.081,                   !- Vertex 4 Ycoordinate
    9.767;                    !- Vertex 4 Zcoordinate

BUILDINGSURFACE:DETAILED,
    F_10,                     !- Name
    Wall,                     !- Surface Type
    C_F,                      !- Construction Name
    Zone_0599100100001527,    !- Zone Name
    ,                         !- Space Name
    Outdoors,                 !- Outside Boundary Condition
    ,                         !- Outside Boundary Condition Object
    SunExposed,               !- Sun Exposure
    WindExposed,              !- Wind Exposure
    0.5,                      !- View Factor to Ground
    4,                        !- Number of Vertices
    0.271,                    !- Vertex 1 Xcoordinate
    10.091,                   !- Vertex 1 Ycoordinate
    9.767,                    !- Vertex 1 Zcoordinate
    0.271,                    !- Vertex 2 Xcoordinate
    10.091,                   !- Vertex 2 Ycoordinate
    0,                        !- Vertex 2 Zcoordinate
    0.387,                    !- Vertex 3 Xcoordinate
    6.951,                    !- Vertex 3 Ycoordinate
    0,                        !- Vertex 3 Zcoordinate
    0.387,                    !- Vertex 4 Xcoordinate
    6.951,                    !- Vertex 4 Ycoordinate
    9.767;                    !- Vertex 4 Zcoordinate

BUILDINGSURFACE:DETAILED,
    F_11,                     !- Name
    Wall,                     !- Surface Type
    C_F,                      !- Construction Name
    Zone_0599100100001527,    !- Zone Name
    ,                         !- Space Name
    Outdoors,                 !- Outside Boundary Condition
    ,                         !- Outside Boundary Condition Object
    SunExposed,               !- Sun Exposure
    WindExposed,              !- Wind Exposure
    0.5,                      !- View Factor to Ground
    4,                        !- Number of Vertices
    0.387,                    !- Vertex 1 Xcoordinate
    6.951,                    !- Vertex 1 Ycoordinate
    9.767,                    !- Vertex 1 Zcoordinate
    0.387,                    !- Vertex 2 Xcoordinate
    6.951,                    !- Vertex 2 Ycoordinate
    0,                        !- Vertex 2 Zcoordinate
    0.237,                    !- Vertex 3 Xcoordinate
    6.947,                    !- Vertex 3 Ycoordinate
    0,                        !- Vertex 3 Zcoordinate
    0.237,                    !- Vertex 4 Xcoordinate
    6.947,                    !- Vertex 4 Ycoordinate
    9.767;                    !- Vertex 4 Zcoordinate

BUILDINGSURFACE:DETAILED,
    F_12,                     !- Name
    Wall,                     !- Surface Type
    C_F,                      !- Construction Name
    Zone_0599100100001527,    !- Zone Name
    ,                         !- Space Name
    Outdoors,                 !- Outside Boundary Condition
    ,                         !- Outside Boundary Condition Object
    SunExposed,               !- Sun Exposure
    WindExposed,              !- Wind Exposure
    0.5,                      !- View Factor to Ground
    4,                        !- Number of Vertices
    0.237,                    !- Vertex 1 Xcoordinate
    6.947,                    !- Vertex 1 Ycoordinate
    9.767,                    !- Vertex 1 Zcoordinate
    0.237,                    !- Vertex 2 Xcoordinate
    6.947,                    !- Vertex 2 Ycoordinate
    0,                        !- Vertex 2 Zcoordinate
    0.312,                    !- Vertex 3 Xcoordinate
    4.36,                     !- Vertex 3 Ycoordinate
    0,                        !- Vertex 3 Zcoordinate
    0.312,                    !- Vertex 4 Xcoordinate
    4.36,                     !- Vertex 4 Ycoordinate
    9.767;                    !- Vertex 4 Zcoordinate

BUILDINGSURFACE:DETAILED,
    F_13,                     !- Name
    Wall,                     !- Surface Type
    C_F,                      !- Construction Name
    Zone_0599100100001527,    !- Zone Name
    ,                         !- Space Name
    Outdoors,                 !- Outside Boundary Condition
    ,                         !- Outside Boundary Condition Object
    SunExposed,               !- Sun Exposure
    WindExposed,              !- Wind Exposure
    0.5,                      !- View Factor to Ground
    4,                        !- Number of Vertices
    0.312,                    !- Vertex 1 Xcoordinate
    4.36,                     !- Vertex 1 Ycoordinate