!- Windows Line endings 

Version,
    24.2;                     !- Version Identifier

SimulationControl,
    No,                       !- Do Zone Sizing Calculation
    No,                       !- Do System Sizing Calculation
    No,                       !- Do Plant Sizing Calculation
    No,                       !- Run Simulation for Sizing Periods
    Yes,                      !- Run Simulation for Weather File Run Periods
    No,                       !- Do HVAC Sizing Simulation for Sizing Periods
    1;                        !- Maximum Number of HVAC Sizing Simulation Passes

BUILDING,
    Pand.0599100000217809,    !- Name
    0,                        !- North Axis
    City,                     !- Terrain
    0.04,                     !- Loads Convergence Tolerance Value
    0.4,                      !- Temperature Convergence Tolerance Value
    FullExterior,             !- Solar Distribution
    25,                       !- Maximum Number of Warmup Days
    1;                        !- Minimum Number of Warmup Days

Timestep,
    6;                        !- Number of Timesteps per Hour

Site:Location,
    Rotterdam.The.Hague.AP_ZH_NLD Design_Conditions,    !- Name
    51.96,                    !- Latitude
    4.45,                     !- Longitude
    1,                        !- Time Zone
    -4.5;                     !- Elevation

RunPeriod,
    Run Period 1,             !- Name
    1,                        !- Begin Month
    1,                        !- Begin Day of Month
    ,                         !- Begin Year
    12,                       !- End Month
    31,                       !- End Day of Month
    ,                         !- End Year
    ,                         !- Day of Week for Start Day
    Yes,                      !- Use Weather File Holidays and Special Days
    Yes,                      !- Use Weather File Daylight Saving Period
    No,                       !- Apply Weekend Holiday Rule
    Yes,                      !- Use Weather File Rain Indicators
    Yes,                      !- Use Weather File Snow Indicators
    No,                       !- Treat Weather as Actual
    Hour24;                   !- First Hour Interpolation Starting Values

RunPeriodControl:DaylightSavingTime,
    Last Sunday in March,     !- Start Date
    Last Sunday in October;    !- End Date

SITE:GROUNDTEMPERATURE:BUILDINGSURFACE,
    18,                       !- January Ground Temperature
    18,                       !- February Ground Temperature
    18,                       !- March Ground Temperature
    18,                       !- April Ground Temperature
    18,                       !- May Ground Temperature
    18,                       !- June Ground Temperature
    18,                       !- July Ground Temperature
    18,                       !- August Ground Temperature
    18,                       !- September Ground Temperature
    18,                       !- October Ground Temperature
    18,                       !- November Ground Temperature
    18;                       !- December Ground Temperature

SCHEDULETYPELIMITS,
    Temperature,              !- Name
    -100,                     !- Lower Limit Value
    100,                      !- Upper Limit Value
    CONTINUOUS,               !- Numeric Type
    Temperature;              !- Unit Type

SCHEDULETYPELIMITS,
    Fraction,                 !- Name
    0,                        !- Lower Limit Value
    1,                        !- Upper Limit Value
    CONTINUOUS,               !- Numeric Type
    Dimensionless;            !- Unit Type

SCHEDULETYPELIMITS,
    Control Type,             !- Name
    0,                        !- Lower Limit Value
    4,                        !- Upper Limit Value
    DISCRETE,                 !- Numeric Type
    Dimensionless;            !- Unit Type

SCHEDULE:COMPACT,
    HeatingSetpoint_Zone_0599100000217809,    !- Name
    Temperature,              !- Schedule Type Limits Name
    Through: 12/31,           !- Field 1
    For: AllDays,             !- Field 2
    Until: 24:00,             !- Field 3
    21.0;                     !- Field 4

SCHEDULE:COMPACT,
    CoolingSetpoint_Zone_0599100000217809,    !- Name
    Temperature,              !- Schedule Type Limits Name
    Through: 12/31,           !- Field 1
    For: AllDays,             !- Field 2
    Until: 24:00,             !- Field 3
    24.0;                     !- Field 4

SCHEDULE:COMPACT,
    DualSetpointControlType,    !- Name
    Control Type,             !- Schedule Type Limits Name
    Through: 12/31,           !- Field 1
    For: AllDays,             !- Field 2
    Until: 24:00,             !- Field 3
    4;                        !- Field 4

SCHEDULE:COMPACT,
    AlwaysOn,                 !- Name
    Fraction,                 !- Schedule Type Limits Name
    Through: 12/31,           !- Field 1
    For: AllDays,             !- Field 2
    Until: 24:00,             !- Field 3
    1.0;                      !- Field 4

MATERIAL,
    G.D.1965,                 !- Name
    MediumSmooth,             !- Roughness
    0.15,                     !- Thickness
    1,                        !- Conductivity
    540,                      !- Density
    1210,                     !- Specific Heat
    0.9,                      !- Thermal Absorptance
    0.7,                      !- Solar Absorptance
    0.7;                      !- Visible Absorptance

MATERIAL,
    F.D.1965,                 !- Name
    Rough,                    !- Roughness
    0.3,                      !- Thickness
    0.8571428571428572,       !- Conductivity
    1920,                     !- Density
    840,                      !- Specific Heat
    0.9,                      !- Thermal Absorptance
    0.7,                      !- Solar Absorptance
    0.7;                      !- Visible Absorptance

MATERIAL,
    R.D.1965,                 !- Name
    MediumRough,              !- Roughness
    0.2,                      !- Thickness
    0.08,                     !- Conductivity
    1500,                     !- Density
    1000,                     !- Specific Heat
    0.9,                      !- Thermal Absorptance
    0.7,                      !- Solar Absorptance
    0.7;                      !- Visible Absorptance

WINDOWMATERIAL:SIMPLEGLAZINGSYSTEM,
    W.D.1965,                 !- Name
    1.8,                      !- UFactor
    0.4,                      !- Solar Heat Gain Coefficient
    0.6;                      !- Visible Transmittance

CONSTRUCTION,
    C_G,                      !- Name
    G.D.1965;                 !- Outside Layer

CONSTRUCTION,
    C_F,                      !- Name
    F.D.1965;                 !- Outside Layer

CONSTRUCTION,
    C_R,                      !- Name
    R.D.1965;                 !- Outside Layer

GlobalGeometryRules,
    UpperLeftCorner,          !- Starting Vertex Position
    Counterclockwise,         !- Vertex Entry Direction
    World,                    !- Coordinate System
    World,                    !- Daylighting Reference Point Coordinate System
    Relative;                 !- Rectangular Surface Coordinate System

ZONE,
    Zone_0599100000217809,    !- Name
    0,                        !- Direction of Relative North
    0,                        !- X Origin
    0,                        !- Y Origin
    0,                        !- Z Origin
    1,                        !- Type
    1,                        !- Multiplier
    Autocalculate,            !- Ceiling Height
    Autocalculate,            !- Volume
    autocalculate,            !- Floor Area
    ,                         !- Zone Inside Convection Algorithm
    ,                         !- Zone Outside Convection Algorithm
    Yes;                      !- Part of Total Floor Area

BUILDINGSURFACE:DETAILED,
    G_0,                      !- Name
    Floor,                    !- Surface Type
    C_G,                      !- Construction Name
    Zone_0599100000217809,    !- Zone Name
    ,                         !- Space Name
    Ground,                   !- Outside Boundary Condition
    ,                         !- Outside Boundary Condition Object
    SunExposed,               !- Sun Exposure
    WindExposed,              !- Wind Exposure
    0.5,                      !- View Factor to Ground
    32,                       !- Number of Vertices
    16.75,                    !- Vertex 1 Xcoordinate
    6.164,                    !- Vertex 1 Ycoordinate
    0.716,                    !- Vertex 1 Zcoordinate
    16.628,                   !- Vertex 2 Xcoordinate
    6.251,                    !- Vertex 2 Ycoordinate
    0.716,                    !- Vertex 2 Zcoordinate
    17.42,                    !- Vertex 3 Xcoordinate
    7.79,                     !- Vertex 3 Ycoordinate
    0.716,                    !- Vertex 3 Zcoordinate
    14.06,                    !- Vertex 4 Xcoordinate
    9.539,                    !- Vertex 4 Ycoordinate
    0.716,                    !- Vertex 4 Zcoordinate
    13.811,                   !- Vertex 5 Xcoordinate
    9.049,                    !- Vertex 5 Ycoordinate
    0.716,                    !- Vertex 5 Zcoordinate
    13.474,                   !- Vertex 6 Xcoordinate
    9.062,                    !- Vertex 6 Ycoordinate
    0.716,                    !- Vertex 6 Zcoordinate
    13.346,                   !- Vertex 7 Xcoordinate
    8.887,                    !- Vertex 7 Ycoordinate
    0.716,                    !- Vertex 7 Zcoordinate
    8.229,                    !- Vertex 8 Xcoordinate
    11.539,                   !- Vertex 8 Ycoordinate
    0.716,                    !- Vertex 8 Zcoordinate
    6.959,                    !- Vertex 9 Xcoordinate
    9.109,                    !- Vertex 9 Ycoordinate
    0.716,                    !- Vertex 9 Zcoordinate
    7.133,                    !- Vertex 10 Xcoordinate
    9.018,                    !- Vertex 10 Ycoordinate
    0.716,                    !- Vertex 10 Zcoordinate
    7.045,                    !- Vertex 11 Xcoordinate
    8.852,                    !- Vertex 11 Ycoordinate
    0.716,                    !- Vertex 11 Zcoordinate
    7.254,                    !- Vertex 12 Xcoordinate
    8.744,                    !- Vertex 12 Ycoordinate
    0.716,                    !- Vertex 12 Zcoordinate
    5.16,                     !- Vertex 13 Xcoordinate
    4.7,                      !- Vertex 13 Ycoordinate
    0.716,                    !- Vertex 13 Zcoordinate
    0,                        !- Vertex 14 Xcoordinate
    7.41,                     !- Vertex 14 Ycoordinate
    0.716,                    !- Vertex 14 Zcoordinate
    0.505,                    !- Vertex 15 Xcoordinate
    8.387,                    !- Vertex 15 Ycoordinate
    0.716,                    !- Vertex 15 Zcoordinate
    2.128,                    !- Vertex 16 Xcoordinate
    11.388,                   !- Vertex 16 Ycoordinate
    0.716,                    !- Vertex 16 Zcoordinate
    2.071,                    !- Vertex 17 Xcoordinate
    11.417,                   !- Vertex 17 Ycoordinate
    0.716,                    !- Vertex 17 Zcoordinate
    6.709,                    !- Vertex 18 Xcoordinate
    20.389,                   !- Vertex 18 Ycoordinate
    0.716,                    !- Vertex 18 Zcoordinate
    16.95,                    !- Vertex 19 Xcoordinate
    15.129,                   !- Vertex 19 Ycoordinate
    0.716,                    !- Vertex 19 Zcoordinate
    16.2,                     !- Vertex 20 Xcoordinate
    13.639,                   !- Vertex 20 Ycoordinate
    0.716,                    !- Vertex 20 Zcoordinate
    19.59,                    !- Vertex 21 Xcoordinate
    11.92,                    !- Vertex 21 Ycoordinate
    0.716,                    !- Vertex 21 Zcoordinate
    20.902,                   !- Vertex 22 Xcoordinate
    14.498,                   !- Vertex 22 Ycoordinate
    0.716,                    !- Vertex 22 Zcoordinate
    21.023,                   !- Vertex 23 Xcoordinate
    14.44,                    !- Vertex 23 Ycoordinate
    0.716,                    !- Vertex 23 Zcoordinate
    21.107,                   !- Vertex 24 Xcoordinate
    14.584,                   !- Vertex 24 Ycoordinate
    0.716,                    !- Vertex 24 Zcoordinate
    26.85,                    !- Vertex 25 Xcoordinate
    11.639,                   !- Vertex 25 Ycoordinate
    0.716,                    !- Vertex 25 Zcoordinate
    22.111,                   !- Vertex 26 Xcoordinate
    2.431,                    !- Vertex 26 Ycoordinate
    0.716,                    !- Vertex 26 Zcoordinate
    21.918,                   !- Vertex 27 Xcoordinate
    2.53,                     !- Vertex 27 Ycoordinate
    0.716,                    !- Vertex 27 Zcoordinate
    21.886,                   !- Vertex 28 Xcoordinate
    2.472,                    !- Vertex 28 Ycoordinate
    0.716,                    !- Vertex 28 Zcoordinate
    22.065,                   !- Vertex 29 Xcoordinate
    2.343,                    !- Vertex 29 Ycoordinate
    0.716,                    !- Vertex 29 Zcoordinate
    20.859,                   !- Vertex 30 Xcoordinate
    0,                        !- Vertex 30 Ycoordinate
    0.716,                    !- Vertex 30 Zcoordinate
    14.969,                   !- Vertex 31 Xcoordinate
    3.029,                    !- Vertex 31 Ycoordinate
    0.716,                    !- Vertex 31 Zcoordinate
    16.118,                   !- Vertex 32 Xcoordinate
    5.262,                    !- Vertex 32 Ycoordinate
    0.716;                    !- Vertex 32 Zcoordinate

BUILDINGSURFACE:DETAILED,
    F_1,                      !- Name
    Wall,                     !- Surface Type
    C_F,                      !- Construction Name
    Zone_0599100000217809,    !- Zone Name
    ,                         !- Space Name
    Outdoors,                 !- Outside Boundary Condition
    ,                         !- Outside Boundary Condition Object
    SunExposed,               !- Sun Exposure
    WindExposed,              !- Wind Exposure
    0.5,                      !- View Factor to Ground
    4,                        !- Number of Vertices
    16.95,                    !- Vertex 1 Xcoordinate
    15.129,                   !- Vertex 1 Ycoordinate
    5.542,                    !- Vertex 1 Zcoordinate
    16.95,                    !- Vertex 2 Xcoordinate
    15.129,                   !- Vertex 2 Ycoordinate
    0.716,                    !- Vertex 2 Zcoordinate
    6.709,                    !- Vertex 3 Xcoordinate
    20.389,                   !- Vertex 3 Ycoordinate
    0.716,                    !- Vertex 3 Zcoordinate
    6.709,                    !- Vertex 4 Xcoordinate
    20.389,                   !- Vertex 4 Ycoordinate
    5.542;                    !- Vertex 4 Zcoordinate

BUILDINGSURFACE:DETAILED,
    F_2,                      !- Name
    Wall,                     !- Surface Type
    C_F,                      !- Construction Name
    Zone_0599100000217809,    !- Zone Name
    ,                         !- Space Name
    Outdoors,                 !- Outside Boundary Condition
    ,                         !- Outside Boundary Condition Object
    SunExposed,               !- Sun Exposure
    WindExposed,              !- Wind Exposure
    0.5,                      !- View Factor to Ground
    4,                        !- Number of Vertices
    16.2,                     !- Vertex 1 Xcoordinate
    13.639,                   !- Vertex 1 Ycoordinate
    5.542,                    !- Vertex 1 Zcoordinate
    16.2,                     !- Vertex 2 Xcoordinate
    13.639,                   !- Vertex 2 Ycoordinate
    0.716,                    !- Vertex 2 Zcoordinate
    16.95,                    !- Vertex 3 Xcoordinate
    15.129,                   !- Vertex 3 Ycoordinate
    0.716,                    !- Vertex 3 Zcoordinate
    16.95,                    !- Vertex 4 Xcoordinate
    15.129,                   !- Vertex 4 Ycoordinate
    5.542;                    !- Vertex 4 Zcoordinate

BUILDINGSURFACE:DETAILED,
    F_3,                      !- Name
    Wall,                     !- Surface Type
    C_F,                      !- Construction Name
    Zone_0599100000217809,    !- Zone Name
    ,                         !- Space Name
    Outdoors,                 !- Outside Boundary Condition
    ,                         !- Outside Boundary Condition Object
    SunExposed,               !- Sun Exposure
    WindExposed,              !- Wind Exposure
    0.5,                      !- View Factor to Ground
    4,                        !- Number of Vertices
    19.59,                    !- Vertex 1 Xcoordinate
    11.92,                    !- Vertex 1 Ycoordinate
    5.542,                    !- Vertex 1 Zcoordinate
    19.59,                    !- Vertex 2 Xcoordinate
    11.92,                    !- Vertex 2 Ycoordinate
    0.716,                    !- Vertex 2 Zcoordinate
    16.2,                     !- Vertex 3 Xcoordinate
    13.639,                   !- Vertex 3 Ycoordinate
    0.716,                    !- Vertex 3 Zcoordinate
    16.2,                     !- Vertex 4 Xcoordinate
    13.639,                   !- Vertex 4 Ycoordinate
    5.542;                    !- Vertex 4 Zcoordinate

BUILDINGSURFACE:DETAILED,
    F_4,                      !- Name
    Wall,                     !- Surface Type
    C_F,                      !- Construction Name
    Zone_0599100000217809,    !- Zone Name
    ,                         !- Space Name
    Outdoors,                 !- Outside Boundary Condition
    ,                         !- Outside Boundary Condition Object
    SunExposed,               !- Sun Exposure
    WindExposed,              !- Wind Exposure
    0.5,                      !- View Factor to Ground
    4,                        !- Number of Vertices
    0.505,                    !- Vertex 1 Xcoordinate
    8.387,                    !- Vertex 1 Ycoordinate
    5.542,                    !- Vertex 1 Zcoordinate
    0.505,                    !- Vertex 2 Xcoordinate
    8.387,                    !- Vertex 2 Ycoordinate
    0.716,                    !- Vertex 2 Zcoordinate
    0,                        !- Vertex 3 Xcoordinate
    7.41,                     !- Vertex 3 Ycoordinate
    0.716,                    !- Vertex 3 Zcoordinate
    0,                        !- Vertex 4 Xcoordinate
    7.41,                     !- Vertex 4 Ycoordinate
    5.542;                    !- Vertex 4 Zcoordinate

BUILDINGSURFACE:DETAILED,
    F_5,                      !- Name
    Wall,                     !- Surface Type
    C_F,                      !- Construction Name
    Zone_0599100000217809,    !- Zone Name
    ,                         !- Space Name
    Outdoors,                 !- Outside Boundary Condition
    ,                         !- Outside Boundary Condition Object
    SunExposed,               !- Sun Exposure
    WindExposed,              !- Wind Exposure
    0.5,                      !- View Factor to Ground
    4,                        !- Number of Vertices
    0,                        !- Vertex 1 Xcoordinate
    7.41,                     !- Vertex 1 Ycoordinate
    5.542,                    !- Vertex 1 Zcoordinate
    0,                        !- Vertex 2 Xcoordinate
    7.41,                     !- Vertex 2 Ycoordinate
    0.716,                    !- Vertex 2 Zcoordinate
    5.16,                     !- Vertex 3 Xcoordinate
    4.7,                      !- Vertex 3 Ycoordinate
    0.716,                    !- Vertex 3 Zcoordinate
    5.16,                     !- Vertex 4 Xcoordinate
    4.7,                      !- Vertex 4 Ycoordinate
    5.542;                    !- Vertex 4 Zcoordinate

BUILDINGSURFACE:DETAILED,
    F_6,                      !- Name
    Wall,                     !- Surface Type
    C_F,                      !- Construction Name
    Zone_0599100000217809,    !- Zone Name
    ,                         !- Space Name
    Outdoors,                 !- Outside Boundary Condition
    ,                         !- Outside Boundary Condition Object
    SunExposed,               !- Sun Exposure
    WindExposed,              !- Wind Exposure
    0.5,                      !- View Factor to Ground
    4,                        !- Number of Vertices
    6.959,                    !- Vertex 1 Xcoordinate
    9.109,                    !- Vertex 1 Ycoordinate
    5.542,                    !- Vertex 1 Zcoordinate
    6.959,                    !- Vertex 2 Xcoordinate
    9.109,                    !- Vertex 2 Ycoordinate
    0.716,                    !- Vertex 2 Zcoordinate
    8.229,                    !- Vertex 3 Xcoordinate
    11.539,                   !- Vertex 3 Ycoordinate
    0.716,                    !- Vertex 3 Zcoordinate
    8.229,                    !- Vertex 4 Xcoordinate
    11.539,                   !- Vertex 4 Ycoordinate
    5.542;                    !- Vertex 4 Zcoordinate

BUILDINGSURFACE:DETAILED,
    F_7,                      !- Name
    Wall,                     !- Surface Type
    C_F,                      !- Construction Name
    Zone_0599100000217809,    !- Zone Name
    ,                         !- Space Name
    Outdoors,                 !- Outside Boundary Condition
    ,                         !- Outside Boundary Condition Object
    SunExposed,               !- Sun Exposure
    WindExposed,              !- Wind Exposure
    0.5,                      !- View Factor to Ground
    4,                        !- Number of Vertices
    2.128,                    !- Vertex 1 Xcoordinate
    11.388,                   !- Vertex 1 Ycoordinate
    5.542,                    !- Vertex 1 Zcoordinate
    2.128,                    !- Vertex 2 Xcoordinate
    11.388,                   !- Vertex 2 Ycoordinate
    0.716,                    !- Vertex 2 Zcoordinate
    0.505,                    !- Vertex 3 Xcoordinate
    8.387,                    !- Vertex 3 Ycoordinate
    0.716,                    !- Vertex 3 Zcoordinate
    0.505,                    !- Vertex 4 Xcoordinate
    8.387,                    !- Vertex 4 Ycoordinate
    5.542;                    !- Vertex 4 Zcoordinate

BUILDINGSURFACE:DETAILED,
    F_8,                      !- Name
    Wall,                     !- Surface Type
    C_F,                      !- Construction Name
    Zone_0599100000217809,    !- Zone Name
    ,                         !- Space Name
    Outdoors,                 !- Outside Boundary Condition
    ,                         !- Outside Boundary Condition Object
    SunExposed,               !- Sun Exposure
    WindExposed,              !- Wind Exposure
    0.5,                      !- View Factor to Ground
    4,                        !- Number of Vertices
    14.06,                    !- Vertex 1 Xcoordinate
    9.539,                    !- Vertex 1 Ycoordinate
    5.542,                    !- Vertex 1 Zcoordinate
    14.06,                    !- Vertex 2 Xcoordinate
    9.539,                    !- Vertex 2 Ycoordinate
    0.716,                    !- Vertex 2 Zcoordinate
    17.42,                    !- Vertex 3 Xcoordinate
    7.79,                     !- Vertex 3 Ycoordinate
    0.716,                    !- Vertex 3 Zcoordinate
    17.42,                    !- Vertex 4 Xcoordinate
    7.79,                     !- Vertex 4 Ycoordinate
    5.542;                    !- Vertex 4 Zcoordinate

BUILDINGSURFACE:DETAILED,
    F_9,                      !- Name
    Wall,                     !- Surface Type
    C_F,                      !- Construction Name
    Zone_0599100000217809,    !- Zone Name
    ,                         !- Space Name
    Outdoors,                 !- Outside Boundary Condition
    ,                         !- Outside Boundary Condition Object
    SunExposed,               !- Sun Exposure
    WindExposed,              !- Wind Exposure
    0.5,                      !- View Factor to Ground
    4,                        !- Number of Vertices
    7.254,                    !- Vertex 1 Xcoordinate
    8.744,                    !- Vertex 1 Ycoordinate
    5.542,                    !- Vertex 1 Zcoordinate
    7.254,                    !- Vertex 2 Xcoordinate
    8.744,                    !- Vertex 2 Ycoordinate
    0.716,                    !- Vertex 2 Zcoordinate
    7.045,                    !- Vertex 3 Xcoordinate
    8.852,                    !- Vertex 3 Ycoordinate
    0.716,                    !- Vertex 3 Zcoordinate
    7.045,                    !- Vertex 4 Xcoordinate
    8.852,                    !- Vertex 4 Ycoordinate
    5.542;                    !- Vertex 4 Zcoordinate

BUILDINGSURFACE:DETAILED,
    F_10,                     !- Name
    Wall,                     !- Surface Type
    C_F,                      !- Construction Name
    Zone_0599100000217809,    !- Zone Name
    ,                         !- Space Name
    Outdoors,                 !- Outside Boundary Condition
    ,                         !- Outside Boundary Condition Object
    SunExposed,               !- Sun Exposure
    WindExposed,              !- Wind Exposure
    0.5,                      !- View Factor to Ground
    4,                        !- Number of Vertices
    16.628,                   !- Vertex 1 Xcoordinate
    6.251,                    !- Vertex 1 Ycoordinate
    5.542,                    !- Vertex 1 Zcoordinate
    16.628,                   !- Vertex 2 Xcoordinate
    6.251,                    !- Vertex 2 Ycoordinate
    0.716,                    !- Vertex 2 Zcoordinate
    16.75,                    !- Vertex 3 Xcoordinate
    6.164,                    !- Vertex 3 Ycoordinate
    0.716,                    !- Vertex 3 Zcoordinate
    16.75,                    !- Vertex 4 Xcoordinate
    6.164,                    !- Vertex 4 Ycoordinate
    5.542;                    !- Vertex 4 Zcoordinate

BUILDINGSURFACE:DETAILED,
    F_11,                     !- Name
    Wall,                     !- Surface Type
    C_F,                      !- Construction Name
    Zone_0599100000217809,    !- Zone Name
    ,                         !- Space Name
    Outdoors,                 !- Outside Boundary Condition
    ,                         !- Outside Boundary Condition Object
    SunExposed,               !- Sun Exposure
    WindExposed,              !- Wind Exposure
    0.5,                      !- View Factor to Ground
    4,                        !- Number of Vertices
    20.859,                   !- Vertex 1 Xcoordinate
    0,                        !- Vertex 1 Ycoordinate
    5.542,                    !- Vertex 1 Zcoordinate
    20.859,                   !- Vertex 2 Xcoordinate
    0,                        !- Vertex 2 Ycoordinate
    0.716,                    !- Vertex 2 Zcoordinate
    22.065,                   !- Vertex 3 Xcoordinate
    2.343,                    !- Vertex 3 Ycoordinate
    0.716,                    !- Vertex 3 Zcoordinate
    22.065,                   !- Vertex 4 Xcoordinate
    2.343,                    !- Vertex 4 Ycoordinate
    5.542;                    !- Vertex 4 Zcoordinate

BUILDINGSURFACE:DETAILED,
    F_12,                     !- Name
    Wall,                     !- Surface Type
    C_F,                      !- Construction Name
    Zone_0599100000217809,    !- Zone Name
    ,                         !- Space Name
    Outdoors,                 !- Outside Boundary Condition
    ,                         !- Outside Boundary Condition Object
    SunExposed,               !- Sun Exposure
    WindExposed,              !- Wind Exposure
    0.5,                      !- View Factor to Ground
    4,                        !- Number of Vertices
    14.969,                   !- Vertex 1 Xcoordinate
    3.029,                    !- Vertex 1 Ycoordinate
    5.542,                    !- Vertex 1 Zcoordinate
    14.969,                   !- Vertex 2 Xcoordinate
    3.029,                    !- Vertex 2 Ycoordinate
    0.716,                    !- Vertex 2 Zcoordinate
    20.859,                   !- Vertex 3 Xcoordinate
    0,                        !- Vertex 3 Ycoordinate
    0.716,                    !- Vertex 3 Zcoordinate
    20.859,                   !- Vertex 4 Xcoordinate
    0,                        !- Vertex 4 Ycoordinate
    5.542;                    !- Vertex 4 Zcoordinate

BUILDINGSURFACE:DETAILED,
    F_13,                     !- Name
    Wall,                     !- Surface Type
    C_F,                      !- Construction Name
    Zone_0599100000217809,    !- Zone Name
    ,                         !- Space Name
    Outdoors,                 !- Outside Boundary Condition
    ,                         !- Outside Boundary Condition Object
    SunExposed,               !- Sun Exposure
    WindExposed,              !- Wind Exposure
    0.5,                      !- View Factor to Ground
    4,                        !- Number of Vertices
    22.111,                   !- Vertex 1 Xcoordinate
    2.431,                    !- Vertex 1 Ycoordinate
    5.542,                    !- Vertex 1 Zcoordinate
    22.111,                   !- Vertex 2 Xcoordinate
    2.431,                    !- Vertex 2 Ycoordinate
    0.716,                    !- Vertex 2 Zcoordinate
    26.85,                    !- Vertex 3 Xcoordinate
    11.639,                   !- Vertex 3 Ycoordinate
    0.716,                    !- Vertex 3 Zcoordinate
    26.85,                    !- Vertex 4 Xcoordinate
    11.639,                   !- Vertex 4 Ycoordinate
    5.542;                    !- Vertex 4 Zcoordinate

BUILDINGSURFACE:DETAILED,
    F_14,                     !- Name
    Wall,                     !- Surface Type
    C_F,                      !- Construction Name
    Zone_0599100000217809,    !- Zone Name
    ,                         !- Space Name
    Outdoors,                 !- Outside Boundary Condition
    ,                         !- Outside Boundary Condition Object
    SunExposed,               !- Sun Exposure
    WindExposed,              !- Wind Exposure