!- Windows Line endings 

Version,
    24.2;                     !- Version Identifier

SimulationControl,
    No,                       !- Do Zone Sizing Calculation
    No,                       !- Do System Sizing Calculation
    No,                       !- Do Plant Sizing Calculation
    No,                       !- Run Simulation for Sizing Periods
    Yes,                      !- Run Simulation for Weather File Run Periods
    No,                       !- Do HVAC Sizing Simulation for Sizing Periods
    1;                        !- Maximum Number of HVAC Sizing Simulation Passes

BUILDING,
    Pand.0599100100007495,    !- Name
    0,                        !- North Axis
    City,                     !- Terrain
    0.04,                     !- Loads Convergence Tolerance Value
    0.4,                      !- Temperature Convergence Tolerance Value
    FullExterior,             !- Solar Distribution
    25,                       !- Maximum Number of Warmup Days
    1;                        !- Minimum Number of Warmup Days

Timestep,
    6;                        !- Number of Timesteps per Hour

Site:Location,
    Rotterdam.The.Hague.AP_ZH_NLD Design_Conditions,    !- Name
    51.96,                    !- Latitude
    4.45,                     !- Longitude
    1,                        !- Time Zone
    -4.5;                     !- Elevation

RunPeriod,
    Run Period 1,             !- Name
    1,                        !- Begin Month
    1,                        !- Begin Day of Month
    ,                         !- Begin Year
    12,                       !- End Month
    31,                       !- End Day of Month
    ,                         !- End Year
    ,                         !- Day of Week for Start Day
    Yes,                      !- Use Weather File Holidays and Special Days
    Yes,                      !- Use Weather File Daylight Saving Period
    No,                       !- Apply Weekend Holiday Rule
    Yes,                      !- Use Weather File Rain Indicators
    Yes,                      !- Use Weather File Snow Indicators
    No,                       !- Treat Weather as Actual
    Hour24;                   !- First Hour Interpolation Starting Values

RunPeriodControl:DaylightSavingTime,
    Last Sunday in March,     !- Start Date
    Last Sunday in October;    !- End Date

SITE:GROUNDTEMPERATURE:BUILDINGSURFACE,
    18,                       !- January Ground Temperature
    18,                       !- February Ground Temperature
    18,                       !- March Ground Temperature
    18,                       !- April Ground Temperature
    18,                       !- May Ground Temperature
    18,                       !- June Ground Temperature
    18,                       !- July Ground Temperature
    18,                       !- August Ground Temperature
    18,                       !- September Ground Temperature
    18,                       !- October Ground Temperature
    18,                       !- November Ground Temperature
    18;                       !- December Ground Temperature

SCHEDULETYPELIMITS,
    Temperature,              !- Name
    -100,                     !- Lower Limit Value
    100,                      !- Upper Limit Value
    CONTINUOUS,               !- Numeric Type
    Temperature;              !- Unit Type

SCHEDULETYPELIMITS,
    Fraction,                 !- Name
    0,                        !- Lower Limit Value
    1,                        !- Upper Limit Value
    CONTINUOUS,               !- Numeric Type
    Dimensionless;            !- Unit Type

SCHEDULETYPELIMITS,
    Control Type,             !- Name
    0,                        !- Lower Limit Value
    4,                        !- Upper Limit Value
    DISCRETE,                 !- Numeric Type
    Dimensionless;            !- Unit Type

SCHEDULE:COMPACT,
    HeatingSetpoint_Zone_0599100100007495,    !- Name
    Temperature,              !- Schedule Type Limits Name
    Through: 12/31,           !- Field 1
    For: AllDays,             !- Field 2
    Until: 24:00,             !- Field 3
    21.0;                     !- Field 4

SCHEDULE:COMPACT,
    CoolingSetpoint_Zone_0599100100007495,    !- Name
    Temperature,              !- Schedule Type Limits Name
    Through: 12/31,           !- Field 1
    For: AllDays,             !- Field 2
    Until: 24:00,             !- Field 3
    24.0;                     !- Field 4

SCHEDULE:COMPACT,
    DualSetpointControlType,    !- Name
    Control Type,             !- Schedule Type Limits Name
    Through: 12/31,           !- Field 1
    For: AllDays,             !- Field 2
    Until: 24:00,             !- Field 3
    4;                        !- Field 4

SCHEDULE:COMPACT,
    AlwaysOn,                 !- Name
    Fraction,                 !- Schedule Type Limits Name
    Through: 12/31,           !- Field 1
    For: AllDays,             !- Field 2
    Until: 24:00,             !- Field 3
    1.0;                      !- Field 4

MATERIAL,
    G.D.2006-2014,            !- Name
    MediumSmooth,             !- Roughness
    0.15,                     !- Thickness
    0.06,                     !- Conductivity
    540,                      !- Density
    1210,                     !- Specific Heat
    0.9,                      !- Thermal Absorptance
    0.7,                      !- Solar Absorptance
    0.7;                      !- Visible Absorptance

MATERIAL,
    F.D.2006-2014,            !- Name
    Rough,                    !- Roughness
    0.3,                      !- Thickness
    0.12,                     !- Conductivity
    1920,                     !- Density
    840,                      !- Specific Heat
    0.9,                      !- Thermal Absorptance
    0.7,                      !- Solar Absorptance
    0.7;                      !- Visible Absorptance

MATERIAL,
    R.D.2006-2014,            !- Name
    MediumRough,              !- Roughness
    0.2,                      !- Thickness
    0.08,                     !- Conductivity
    1500,                     !- Density
    1000,                     !- Specific Heat
    0.9,                      !- Thermal Absorptance
    0.7,                      !- Solar Absorptance
    0.7;                      !- Visible Absorptance

WINDOWMATERIAL:SIMPLEGLAZINGSYSTEM,
    W.D.2006-2014,            !- Name
    1.8,                      !- UFactor
    0.4,                      !- Solar Heat Gain Coefficient
    0.6;                      !- Visible Transmittance

CONSTRUCTION,
    C_G,                      !- Name
    G.D.2006-2014;            !- Outside Layer

CONSTRUCTION,
    C_F,                      !- Name
    F.D.2006-2014;            !- Outside Layer

CONSTRUCTION,
    C_R,                      !- Name
    R.D.2006-2014;            !- Outside Layer

GlobalGeometryRules,
    UpperLeftCorner,          !- Starting Vertex Position
    Counterclockwise,         !- Vertex Entry Direction
    World,                    !- Coordinate System
    World,                    !- Daylighting Reference Point Coordinate System
    Relative;                 !- Rectangular Surface Coordinate System

ZONE,
    Zone_0599100100007495,    !- Name
    0,                        !- Direction of Relative North
    0,                        !- X Origin
    0,                        !- Y Origin
    0,                        !- Z Origin
    1,                        !- Type
    1,                        !- Multiplier
    Autocalculate,            !- Ceiling Height
    Autocalculate,            !- Volume
    autocalculate,            !- Floor Area
    ,                         !- Zone Inside Convection Algorithm
    ,                         !- Zone Outside Convection Algorithm
    Yes;                      !- Part of Total Floor Area

BUILDINGSURFACE:DETAILED,
    G_0,                      !- Name
    Floor,                    !- Surface Type
    C_G,                      !- Construction Name
    Zone_0599100100007495,    !- Zone Name
    ,                         !- Space Name
    Ground,                   !- Outside Boundary Condition
    ,                         !- Outside Boundary Condition Object
    SunExposed,               !- Sun Exposure
    WindExposed,              !- Wind Exposure
    0.5,                      !- View Factor to Ground
    49,                       !- Number of Vertices
    1.745,                    !- Vertex 1 Xcoordinate
    2.908,                    !- Vertex 1 Ycoordinate
    6.716,                    !- Vertex 1 Zcoordinate
    1.355,                    !- Vertex 2 Xcoordinate
    3.064,                    !- Vertex 2 Ycoordinate
    6.716,                    !- Vertex 2 Zcoordinate
    0.995,                    !- Vertex 3 Xcoordinate
    3.283,                    !- Vertex 3 Ycoordinate
    6.716,                    !- Vertex 3 Zcoordinate
    0.679,                    !- Vertex 4 Xcoordinate
    3.56,                     !- Vertex 4 Ycoordinate
    6.716,                    !- Vertex 4 Zcoordinate
    0.416,                    !- Vertex 5 Xcoordinate
    3.887,                    !- Vertex 5 Ycoordinate
    6.716,                    !- Vertex 5 Zcoordinate
    0.211,                    !- Vertex 6 Xcoordinate
    4.253,                    !- Vertex 6 Ycoordinate
    6.716,                    !- Vertex 6 Zcoordinate
    0.071,                    !- Vertex 7 Xcoordinate
    4.649,                    !- Vertex 7 Ycoordinate
    6.716,                    !- Vertex 7 Zcoordinate
    0,                        !- Vertex 8 Xcoordinate
    5.064,                    !- Vertex 8 Ycoordinate
    6.716,                    !- Vertex 8 Zcoordinate
    0,                        !- Vertex 9 Xcoordinate
    5.483,                    !- Vertex 9 Ycoordinate
    6.716,                    !- Vertex 9 Zcoordinate
    0.071,                    !- Vertex 10 Xcoordinate
    5.898,                    !- Vertex 10 Ycoordinate
    6.716,                    !- Vertex 10 Zcoordinate
    0.213,                    !- Vertex 11 Xcoordinate
    6.293,                    !- Vertex 11 Ycoordinate
    6.716,                    !- Vertex 11 Zcoordinate
    0.418,                    !- Vertex 12 Xcoordinate
    6.659,                    !- Vertex 12 Ycoordinate
    6.716,                    !- Vertex 12 Zcoordinate
    0.683,                    !- Vertex 13 Xcoordinate
    6.986,                    !- Vertex 13 Ycoordinate
    6.716,                    !- Vertex 13 Zcoordinate
    1,                        !- Vertex 14 Xcoordinate
    7.262,                    !- Vertex 14 Ycoordinate
    6.716,                    !- Vertex 14 Zcoordinate
    1.357,                    !- Vertex 15 Xcoordinate
    7.481,                    !- Vertex 15 Ycoordinate
    6.716,                    !- Vertex 15 Zcoordinate
    1.748,                    !- Vertex 16 Xcoordinate
    7.636,                    !- Vertex 16 Ycoordinate
    6.716,                    !- Vertex 16 Zcoordinate
    2.159,                    !- Vertex 17 Xcoordinate
    7.721,                    !- Vertex 17 Ycoordinate
    6.716,                    !- Vertex 17 Zcoordinate
    2.579,                    !- Vertex 18 Xcoordinate
    7.736,                    !- Vertex 18 Ycoordinate
    6.716,                    !- Vertex 18 Zcoordinate
    2.995,                    !- Vertex 19 Xcoordinate
    7.68,                     !- Vertex 19 Ycoordinate
    6.716,                    !- Vertex 19 Zcoordinate
    5.079,                    !- Vertex 20 Xcoordinate
    14.363,                   !- Vertex 20 Ycoordinate
    6.716,                    !- Vertex 20 Zcoordinate
    4.709,                    !- Vertex 21 Xcoordinate
    14.553,                   !- Vertex 21 Ycoordinate
    6.716,                    !- Vertex 21 Zcoordinate
    4.375,                    !- Vertex 22 Xcoordinate
    14.8,                     !- Vertex 22 Ycoordinate
    6.716,                    !- Vertex 22 Zcoordinate
    4.088,                    !- Vertex 23 Xcoordinate
    15.102,                   !- Vertex 23 Ycoordinate
    6.716,                    !- Vertex 23 Zcoordinate
    3.855,                    !- Vertex 24 Xcoordinate
    15.45,                    !- Vertex 24 Ycoordinate
    6.716,                    !- Vertex 24 Zcoordinate
    3.687,                    !- Vertex 25 Xcoordinate
    15.83,                    !- Vertex 25 Ycoordinate
    6.716,                    !- Vertex 25 Zcoordinate
    3.584,                    !- Vertex 26 Xcoordinate
    16.233,                   !- Vertex 26 Ycoordinate
    6.716,                    !- Vertex 26 Zcoordinate
    3.553,                    !- Vertex 27 Xcoordinate
    16.648,                   !- Vertex 27 Ycoordinate
    6.716,                    !- Vertex 27 Zcoordinate
    3.592,                    !- Vertex 28 Xcoordinate
    17.064,                   !- Vertex 28 Ycoordinate
    6.716,                    !- Vertex 28 Zcoordinate
    3.7,                      !- Vertex 29 Xcoordinate
    17.465,                   !- Vertex 29 Ycoordinate
    6.716,                    !- Vertex 29 Zcoordinate
    3.722,                    !- Vertex 30 Xcoordinate
    17.511,                   !- Vertex 30 Ycoordinate
    6.716,                    !- Vertex 30 Zcoordinate
    3.793,                    !- Vertex 31 Xcoordinate
    17.476,                   !- Vertex 31 Ycoordinate
    6.716,                    !- Vertex 31 Zcoordinate
    3.77,                     !- Vertex 32 Xcoordinate
    17.615,                   !- Vertex 32 Ycoordinate
    6.716,                    !- Vertex 32 Zcoordinate
    3.877,                    !- Vertex 33 Xcoordinate
    17.842,                   !- Vertex 33 Ycoordinate
    6.716,                    !- Vertex 33 Zcoordinate
    4.114,                    !- Vertex 34 Xcoordinate
    18.185,                   !- Vertex 34 Ycoordinate
    6.716,                    !- Vertex 34 Zcoordinate
    4.405,                    !- Vertex 35 Xcoordinate
    18.481,                   !- Vertex 35 Ycoordinate
    6.716,                    !- Vertex 35 Zcoordinate
    4.743,                    !- Vertex 36 Xcoordinate
    18.725,                   !- Vertex 36 Ycoordinate
    6.716,                    !- Vertex 36 Zcoordinate
    5.118,                    !- Vertex 37 Xcoordinate
    18.907,                   !- Vertex 37 Ycoordinate
    6.716,                    !- Vertex 37 Zcoordinate
    5.519,                    !- Vertex 38 Xcoordinate
    19.023,                   !- Vertex 38 Ycoordinate
    6.716,                    !- Vertex 38 Zcoordinate
    5.933,                    !- Vertex 39 Xcoordinate
    19.069,                   !- Vertex 39 Ycoordinate
    6.716,                    !- Vertex 39 Zcoordinate
    6.349,                    !- Vertex 40 Xcoordinate
    19.043,                   !- Vertex 40 Ycoordinate
    6.716,                    !- Vertex 40 Zcoordinate
    6.754,                    !- Vertex 41 Xcoordinate
    18.948,                   !- Vertex 41 Ycoordinate
    6.716,                    !- Vertex 41 Zcoordinate
    16.004,                   !- Vertex 42 Xcoordinate
    16.132,                   !- Vertex 42 Ycoordinate
    6.716,                    !- Vertex 42 Zcoordinate
    14.53,                    !- Vertex 43 Xcoordinate
    11.417,                   !- Vertex 43 Ycoordinate
    6.716,                    !- Vertex 43 Zcoordinate
    13.577,                   !- Vertex 44 Xcoordinate
    11.715,                   !- Vertex 44 Ycoordinate
    6.716,                    !- Vertex 44 Zcoordinate
    11.491,                   !- Vertex 45 Xcoordinate
    5.031,                    !- Vertex 45 Ycoordinate
    6.716,                    !- Vertex 45 Zcoordinate
    12.446,                   !- Vertex 46 Xcoordinate
    4.733,                    !- Vertex 46 Ycoordinate
    6.716,                    !- Vertex 46 Zcoordinate
    11.094,                   !- Vertex 47 Xcoordinate
    0.395,                    !- Vertex 47 Ycoordinate
    6.716,                    !- Vertex 47 Zcoordinate
    10.905,                   !- Vertex 48 Xcoordinate
    0.451,                    !- Vertex 48 Ycoordinate
    6.716,                    !- Vertex 48 Zcoordinate
    10.779,                   !- Vertex 49 Xcoordinate
    0.06,                     !- Vertex 49 Ycoordinate
    6.716;                    !- Vertex 49 Zcoordinate

BUILDINGSURFACE:DETAILED,
    F_1,                      !- Name
    Wall,                     !- Surface Type
    C_F,                      !- Construction Name
    Zone_0599100100007495,    !- Zone Name
    ,                         !- Space Name
    Outdoors,                 !- Outside Boundary Condition
    ,                         !- Outside Boundary Condition Object
    SunExposed,               !- Sun Exposure
    WindExposed,              !- Wind Exposure
    0.5,                      !- View Factor to Ground
    4,                        !- Number of Vertices
    16.004,                   !- Vertex 1 Xcoordinate
    16.132,                   !- Vertex 1 Ycoordinate
    13.778,                   !- Vertex 1 Zcoordinate
    16.004,                   !- Vertex 2 Xcoordinate
    16.132,                   !- Vertex 2 Ycoordinate
    6.716,                    !- Vertex 2 Zcoordinate
    6.754,                    !- Vertex 3 Xcoordinate
    18.948,                   !- Vertex 3 Ycoordinate
    6.716,                    !- Vertex 3 Zcoordinate
    6.754,                    !- Vertex 4 Xcoordinate
    18.948,                   !- Vertex 4 Ycoordinate
    13.778;                   !- Vertex 4 Zcoordinate

BUILDINGSURFACE:DETAILED,
    F_2,                      !- Name
    Wall,                     !- Surface Type
    C_F,                      !- Construction Name
    Zone_0599100100007495,    !- Zone Name
    ,                         !- Space Name
    Outdoors,                 !- Outside Boundary Condition
    ,                         !- Outside Boundary Condition Object
    SunExposed,               !- Sun Exposure
    WindExposed,              !- Wind Exposure
    0.5,                      !- View Factor to Ground
    4,                        !- Number of Vertices
    5.118,                    !- Vertex 1 Xcoordinate
    18.907,                   !- Vertex 1 Ycoordinate
    13.778,                   !- Vertex 1 Zcoordinate
    5.118,                    !- Vertex 2 Xcoordinate
    18.907,                   !- Vertex 2 Ycoordinate
    6.716,                    !- Vertex 2 Zcoordinate
    4.743,                    !- Vertex 3 Xcoordinate
    18.725,                   !- Vertex 3 Ycoordinate
    6.716,                    !- Vertex 3 Zcoordinate
    4.743,                    !- Vertex 4 Xcoordinate
    18.725,                   !- Vertex 4 Ycoordinate
    13.778;                   !- Vertex 4 Zcoordinate

BUILDINGSURFACE:DETAILED,
    F_3,                      !- Name
    Wall,                     !- Surface Type
    C_F,                      !- Construction Name
    Zone_0599100100007495,    !- Zone Name
    ,                         !- Space Name
    Outdoors,                 !- Outside Boundary Condition
    ,                         !- Outside Boundary Condition Object
    SunExposed,               !- Sun Exposure
    WindExposed,              !- Wind Exposure
    0.5,                      !- View Factor to Ground
    4,                        !- Number of Vertices
    6.349,                    !- Vertex 1 Xcoordinate
    19.043,                   !- Vertex 1 Ycoordinate
    13.778,                   !- Vertex 1 Zcoordinate
    6.349,                    !- Vertex 2 Xcoordinate
    19.043,                   !- Vertex 2 Ycoordinate
    6.716,                    !- Vertex 2 Zcoordinate
    5.933,                    !- Vertex 3 Xcoordinate
    19.069,                   !- Vertex 3 Ycoordinate
    6.716,                    !- Vertex 3 Zcoordinate
    5.933,                    !- Vertex 4 Xcoordinate
    19.069,                   !- Vertex 4 Ycoordinate
    13.778;                   !- Vertex 4 Zcoordinate

BUILDINGSURFACE:DETAILED,
    F_4,                      !- Name
    Wall,                     !- Surface Type
    C_F,                      !- Construction Name
    Zone_0599100100007495,    !- Zone Name
    ,                         !- Space Name
    Outdoors,                 !- Outside Boundary Condition
    ,                         !- Outside Boundary Condition Object
    SunExposed,               !- Sun Exposure
    WindExposed,              !- Wind Exposure
    0.5,                      !- View Factor to Ground
    4,                        !- Number of Vertices
    14.53,                    !- Vertex 1 Xcoordinate
    11.417,                   !- Vertex 1 Ycoordinate
    13.778,                   !- Vertex 1 Zcoordinate
    14.53,                    !- Vertex 2 Xcoordinate
    11.417,                   !- Vertex 2 Ycoordinate
    6.716,                    !- Vertex 2 Zcoordinate
    16.004,                   !- Vertex 3 Xcoordinate
    16.132,                   !- Vertex 3 Ycoordinate
    6.716,                    !- Vertex 3 Zcoordinate
    16.004,                   !- Vertex 4 Xcoordinate
    16.132,                   !- Vertex 4 Ycoordinate
    13.778;                   !- Vertex 4 Zcoordinate

BUILDINGSURFACE:DETAILED,
    F_5,                      !- Name
    Wall,                     !- Surface Type
    C_F,                      !- Construction Name
    Zone_0599100100007495,    !- Zone Name
    ,                         !- Space Name
    Outdoors,                 !- Outside Boundary Condition
    ,                         !- Outside Boundary Condition Object
    SunExposed,               !- Sun Exposure
    WindExposed,              !- Wind Exposure
    0.5,                      !- View Factor to Ground
    4,                        !- Number of Vertices
    6.754,                    !- Vertex 1 Xcoordinate
    18.948,                   !- Vertex 1 Ycoordinate
    13.778,                   !- Vertex 1 Zcoordinate
    6.754,                    !- Vertex 2 Xcoordinate
    18.948,                   !- Vertex 2 Ycoordinate
    6.716,                    !- Vertex 2 Zcoordinate
    6.349,                    !- Vertex 3 Xcoordinate
    19.043,                   !- Vertex 3 Ycoordinate
    6.716,                    !- Vertex 3 Zcoordinate
    6.349,                    !- Vertex 4 Xcoordinate
    19.043,                   !- Vertex 4 Ycoordinate
    13.778;                   !- Vertex 4 Zcoordinate

BUILDINGSURFACE:DETAILED,
    F_6,                      !- Name
    Wall,                     !- Surface Type
    C_F,                      !- Construction Name
    Zone_0599100100007495,    !- Zone Name
    ,                         !- Space Name
    Outdoors,                 !- Outside Boundary Condition
    ,                         !- Outside Boundary Condition Object
    SunExposed,               !- Sun Exposure
    WindExposed,              !- Wind Exposure
    0.5,                      !- View Factor to Ground
    4,                        !- Number of Vertices
    5.519,                    !- Vertex 1 Xcoordinate
    19.023,                   !- Vertex 1 Ycoordinate
    13.778,                   !- Vertex 1 Zcoordinate
    5.519,                    !- Vertex 2 Xcoordinate
    19.023,                   !- Vertex 2 Ycoordinate
    6.716,                    !- Vertex 2 Zcoordinate
    5.118,                    !- Vertex 3 Xcoordinate
    18.907,                   !- Vertex 3 Ycoordinate
    6.716,                    !- Vertex 3 Zcoordinate
    5.118,                    !- Vertex 4 Xcoordinate
    18.907,                   !- Vertex 4 Ycoordinate
    13.778;                   !- Vertex 4 Zcoordinate

BUILDINGSURFACE:DETAILED,
    F_7,                      !- Name
    Wall,                     !- Surface Type
    C_F,                      !- Construction Name
    Zone_0599100100007495,    !- Zone Name
    ,                         !- Space Name
    Outdoors,                 !- Outside Boundary Condition
    ,                         !- Outside Boundary Condition Object
    SunExposed,               !- Sun Exposure
    WindExposed,              !- Wind Exposure
    0.5,                      !- View Factor to Ground
    4,                        !- Number of Vertices
    5.933,                    !- Vertex 1 Xcoordinate
    19.069,                   !- Vertex 1 Ycoordinate
    13.778,                   !- Vertex 1 Zcoordinate
    5.933,                    !- Vertex 2 Xcoordinate
    19.069,                   !- Vertex 2 Ycoordinate
    6.716,                    !- Vertex 2 Zcoordinate
    5.519,                    !- Vertex 3 Xcoordinate
    19.023,                   !- Vertex 3 Ycoordinate
    6.716,                    !- Vertex 3 Zcoordinate
    5.519,                    !- Vertex 4 Xcoordinate
    19.023,                   !- Vertex 4 Ycoordinate
    13.778;                   !- Vertex 4 Zcoordinate

BUILDINGSURFACE:DETAILED,
    F_8,                      !- Name
    Wall,                     !- Surface Type
    C_F,                      !- Construction Name
    Zone_0599100100007495,    !- Zone Name
    ,                         !- Space Name
    Outdoors,                 !- Outside Boundary Condition
    ,                         !- Outside Boundary Condition Object
    SunExposed,               !- Sun Exposure
    WindExposed,              !- Wind Exposure
    0.5,                      !- View Factor to Ground
    4,                        !- Number of Vertices
    4.405,                    !- Vertex 1 Xcoordinate
    18.481,                   !- Vertex 1 Ycoordinate
    13.778,                   !- Vertex 1 Zcoordinate
    4.405,                    !- Vertex 2 Xcoordinate
    18.481,                   !- Vertex 2 Ycoordinate
    6.716,                    !- Vertex 2 Zcoordinate
    4.114,                    !- Vertex 3 Xcoordinate
    18.185,                   !- Vertex 3 Ycoordinate
    6.716,                    !- Vertex 3 Zcoordinate
    4.114,                    !- Vertex 4 Xcoordinate
    18.185,                   !- Vertex 4 Ycoordinate
    13.778;                   !- Vertex 4 Zcoordinate

BUILDINGSURFACE:DETAILED,
    F_9,                      !- Name
    Wall,                     !- Surface Type
    C_F,                      !- Construction Name
    Zone_0599100100007495,    !- Zone Name
    ,                         !- Space Name
    Outdoors,                 !- Outside Boundary Condition
    ,                         !- Outside Boundary Condition Object
    SunExposed,               !- Sun Exposure
    WindExposed,              !- Wind Exposure
    0.5,                      !- View Factor to Ground
    4,                        !- Number of Vertices
    4.114,                    !- Vertex 1 Xcoordinate
    18.185,                   !- Vertex 1 Ycoordinate
    13.778,                   !- Vertex 1 Zcoordinate
    4.114,                    !- Vertex 2 Xcoordinate
    18.185,                   !- Vertex 2 Ycoordinate
    6.716,                    !- Vertex 2 Zcoordinate
    3.877,                    !- Vertex 3 Xcoordinate
    17.842,                   !- Vertex 3 Ycoordinate
    6.716,                    !- Vertex 3 Zcoordinate
    3.877,                    !- Vertex 4 Xcoordinate
    17.842,                   !- Vertex 4 Ycoordinate
    13.778;                   !- Vertex 4 Zcoordinate

BUILDINGSURFACE:DETAILED,
    F_10,                     !- Name
    Wall,                     !- Surface Type
    C_F,                      !- Construction Name
    Zone_0599100100007495,    !- Zone Name
    ,                         !- Space Name
    Outdoors,                 !- Outside Boundary Condition
    ,                         !- Outside Boundary Condition Object
    SunExposed,               !- Sun Exposure
    WindExposed,              !- Wind Exposure
    0.5,                      !- View Factor to Ground
    4,                        !- Number of Vertices
    4.743,                    !- Vertex 1 Xcoordinate
    18.725,                   !- Vertex 1 Ycoordinate
    13.778,                   !- Vertex 1 Zcoordinate
    4.743,                    !- Vertex 2 Xcoordinate
    18.725,                   !- Vertex 2 Ycoordinate
    6.716,                    !- Vertex 2 Zcoordinate
    4.405,                    !- Vertex 3 Xcoordinate
    18.481,                   !- Vertex 3 Ycoordinate
    6.716,                    !- Vertex 3 Zcoordinate
    4.405,                    !- Vertex 4 Xcoordinate
    18.481,                   !- Vertex 4 Ycoordinate
    13.778;                   !- Vertex 4 Zcoordinate

BUILDINGSURFACE:DETAILED,
    F_11,                     !- Name
    Wall,                     !- Surface Type
    C_F,                      !- Construction Name
    Zone_0599100100007495,    !- Zone Name
    ,                         !- Space Name
    Outdoors,                 !- Outside Boundary Condition
    ,                         !- Outside Boundary Condition Object
    SunExposed,               !- Sun Exposure
    WindExposed,              !- Wind Exposure
    0.5,                      !- View Factor to Ground
    4,                        !- Number of Vertices
    3.592,                    !- Vertex 1 Xcoordinate
    17.064,                   !- Vertex 1 Ycoordinate
    13.778,                   !- Vertex 1 Zcoordinate
    3.592,                    !- Vertex 2 Xcoordinate
    17.064,                   !- Vertex 2 Ycoordinate
    6.716,                    !- Vertex 2 Zcoordinate
    3.553,                    !- Vertex 3 Xcoordinate
    16.648,                   !- Vertex 3 Ycoordinate
    6.716,                    !- Vertex 3 Zcoordinate
    3.553,                    !- Vertex 4 Xcoordinate
    16.648,                   !- Vertex 4 Ycoordinate
    13.778;                   !- Vertex 4 Zcoordinate

BUILDINGSURFACE:DETAILED,
    F_12,                     !- Name
    Wall,                     !- Surface Type