!- Windows Line endings 

Version,
    24.2;                     !- Version Identifier

SimulationControl,
    No,                       !- Do Zone Sizing Calculation
    No,                       !- Do System Sizing Calculation
    No,                       !- Do Plant Sizing Calculation
    No,                       !- Run Simulation for Sizing Periods
    Yes,                      !- Run Simulation for Weather File Run Periods
    No,                       !- Do HVAC Sizing Simulation for Sizing Periods
    1;                        !- Maximum Number of HVAC Sizing Simulation Passes

BUILDING,
    Pand.0599100000270056,    !- Name
    0,                        !- North Axis
    City,                     !- Terrain
    0.04,                     !- Loads Convergence Tolerance Value
    0.4,                      !- Temperature Convergence Tolerance Value
    FullExterior,             !- Solar Distribution
    25,                       !- Maximum Number of Warmup Days
    1;                        !- Minimum Number of Warmup Days

Timestep,
    6;                        !- Number of Timesteps per Hour

Site:Location,
    Rotterdam.The.Hague.AP_ZH_NLD Design_Conditions,    !- Name
    51.96,                    !- Latitude
    4.45,                     !- Longitude
    1,                        !- Time Zone
    -4.5;                     !- Elevation

RunPeriod,
    Run Period 1,             !- Name
    1,                        !- Begin Month
    1,                        !- Begin Day of Month
    ,                         !- Begin Year
    12,                       !- End Month
    31,                       !- End Day of Month
    ,                         !- End Year
    ,                         !- Day of Week for Start Day
    Yes,                      !- Use Weather File Holidays and Special Days
    Yes,                      !- Use Weather File Daylight Saving Period
    No,                       !- Apply Weekend Holiday Rule
    Yes,                      !- Use Weather File Rain Indicators
    Yes,                      !- Use Weather File Snow Indicators
    No,                       !- Treat Weather as Actual
    Hour24;                   !- First Hour Interpolation Starting Values

RunPeriodControl:DaylightSavingTime,
    Last Sunday in March,     !- Start Date
    Last Sunday in October;    !- End Date

SITE:GROUNDTEMPERATURE:BUILDINGSURFACE,
    18,                       !- January Ground Temperature
    18,                       !- February Ground Temperature
    18,                       !- March Ground Temperature
    18,                       !- April Ground Temperature
    18,                       !- May Ground Temperature
    18,                       !- June Ground Temperature
    18,                       !- July Ground Temperature
    18,                       !- August Ground Temperature
    18,                       !- September Ground Temperature
    18,                       !- October Ground Temperature
    18,                       !- November Ground Temperature
    18;                       !- December Ground Temperature

SCHEDULETYPELIMITS,
    Temperature,              !- Name
    -100,                     !- Lower Limit Value
    100,                      !- Upper Limit Value
    CONTINUOUS,               !- Numeric Type
    Temperature;              !- Unit Type

SCHEDULETYPELIMITS,
    Fraction,                 !- Name
    0,                        !- Lower Limit Value
    1,                        !- Upper Limit Value
    CONTINUOUS,               !- Numeric Type
    Dimensionless;            !- Unit Type

SCHEDULETYPELIMITS,
    Control Type,             !- Name
    0,                        !- Lower Limit Value
    4,                        !- Upper Limit Value
    DISCRETE,                 !- Numeric Type
    Dimensionless;            !- Unit Type

SCHEDULE:COMPACT,
    HeatingSetpoint_Zone_0599100000270056,    !- Name
    Temperature,              !- Schedule Type Limits Name
    Through: 12/31,           !- Field 1
    For: AllDays,             !- Field 2
    Until: 24:00,             !- Field 3
    21.0;                     !- Field 4

SCHEDULE:COMPACT,
    CoolingSetpoint_Zone_0599100000270056,    !- Name
    Temperature,              !- Schedule Type Limits Name
    Through: 12/31,           !- Field 1
    For: AllDays,             !- Field 2
    Until: 24:00,             !- Field 3
    24.0;                     !- Field 4

SCHEDULE:COMPACT,
    DualSetpointControlType,    !- Name
    Control Type,             !- Schedule Type Limits Name
    Through: 12/31,           !- Field 1
    For: AllDays,             !- Field 2
    Until: 24:00,             !- Field 3
    4;                        !- Field 4

SCHEDULE:COMPACT,
    AlwaysOn,                 !- Name
    Fraction,                 !- Schedule Type Limits Name
    Through: 12/31,           !- Field 1
    For: AllDays,             !- Field 2
    Until: 24:00,             !- Field 3
    1.0;                      !- Field 4

MATERIAL,
    G.D.1975-1991,            !- Name
    MediumSmooth,             !- Roughness
    0.15,                     !- Thickness
    2.884615e-01,             !- Conductivity
    540,                      !- Density
    1210,                     !- Specific Heat
    0.9,                      !- Thermal Absorptance
    0.7,                      !- Solar Absorptance
    0.7;                      !- Visible Absorptance

MATERIAL,
    F.D.1975-1991,            !- Name
    Rough,                    !- Roughness
    0.3,                      !- Thickness
    2.307692e-01,             !- Conductivity
    1920,                     !- Density
    840,                      !- Specific Heat
    0.9,                      !- Thermal Absorptance
    0.7,                      !- Solar Absorptance
    0.7;                      !- Visible Absorptance

MATERIAL,
    R.D.1975-1991,            !- Name
    MediumRough,              !- Roughness
    0.2,                      !- Thickness
    1.538462e-01,             !- Conductivity
    1500,                     !- Density
    1000,                     !- Specific Heat
    0.9,                      !- Thermal Absorptance
    0.7,                      !- Solar Absorptance
    0.7;                      !- Visible Absorptance

WINDOWMATERIAL:SIMPLEGLAZINGSYSTEM,
    W.D.1975-1991,            !- Name
    2.9,                      !- UFactor
    0.6,                      !- Solar Heat Gain Coefficient
    0.6;                      !- Visible Transmittance

CONSTRUCTION,
    C_G,                      !- Name
    G.D.1975-1991;            !- Outside Layer

CONSTRUCTION,
    C_F,                      !- Name
    F.D.1975-1991;            !- Outside Layer

CONSTRUCTION,
    C_R,                      !- Name
    R.D.1975-1991;            !- Outside Layer

GlobalGeometryRules,
    UpperLeftCorner,          !- Starting Vertex Position
    Counterclockwise,         !- Vertex Entry Direction
    World,                    !- Coordinate System
    World,                    !- Daylighting Reference Point Coordinate System
    Relative;                 !- Rectangular Surface Coordinate System

ZONE,
    Zone_0599100000270056,    !- Name
    0,                        !- Direction of Relative North
    0,                        !- X Origin
    0,                        !- Y Origin
    0,                        !- Z Origin
    1,                        !- Type
    1,                        !- Multiplier
    Autocalculate,            !- Ceiling Height
    Autocalculate,            !- Volume
    autocalculate,            !- Floor Area
    ,                         !- Zone Inside Convection Algorithm
    ,                         !- Zone Outside Convection Algorithm
    Yes;                      !- Part of Total Floor Area

BUILDINGSURFACE:DETAILED,
    G_0,                      !- Name
    Floor,                    !- Surface Type
    C_G,                      !- Construction Name
    Zone_0599100000270056,    !- Zone Name
    ,                         !- Space Name
    Ground,                   !- Outside Boundary Condition
    ,                         !- Outside Boundary Condition Object
    SunExposed,               !- Sun Exposure
    WindExposed,              !- Wind Exposure
    0.5,                      !- View Factor to Ground
    30,                       !- Number of Vertices
    17.864,                   !- Vertex 1 Xcoordinate
    6.17,                     !- Vertex 1 Ycoordinate
    3.769,                    !- Vertex 1 Zcoordinate
    12.651,                   !- Vertex 2 Xcoordinate
    7.019,                    !- Vertex 2 Ycoordinate
    3.769,                    !- Vertex 2 Zcoordinate
    12.341,                   !- Vertex 3 Xcoordinate
    5.11,                     !- Vertex 3 Ycoordinate
    3.769,                    !- Vertex 3 Zcoordinate
    13.44,                    !- Vertex 4 Xcoordinate
    4.929,                    !- Vertex 4 Ycoordinate
    3.769,                    !- Vertex 4 Zcoordinate
    12.641,                   !- Vertex 5 Xcoordinate
    0,                        !- Vertex 5 Ycoordinate
    3.769,                    !- Vertex 5 Zcoordinate
    6.081,                    !- Vertex 6 Xcoordinate
    1.06,                     !- Vertex 6 Ycoordinate
    3.769,                    !- Vertex 6 Zcoordinate
    6.877,                    !- Vertex 7 Xcoordinate
    5.918,                    !- Vertex 7 Ycoordinate
    3.769,                    !- Vertex 7 Zcoordinate
    7.748,                    !- Vertex 8 Xcoordinate
    5.83,                     !- Vertex 8 Ycoordinate
    3.769,                    !- Vertex 8 Zcoordinate
    7.98,                     !- Vertex 9 Xcoordinate
    5.819,                    !- Vertex 9 Ycoordinate
    3.769,                    !- Vertex 9 Zcoordinate
    8.44,                     !- Vertex 10 Xcoordinate
    8.519,                    !- Vertex 10 Ycoordinate
    3.769,                    !- Vertex 10 Zcoordinate
    0.21,                     !- Vertex 11 Xcoordinate
    9.914,                    !- Vertex 11 Ycoordinate
    3.769,                    !- Vertex 11 Zcoordinate
    0.238,                    !- Vertex 12 Xcoordinate
    10.108,                   !- Vertex 12 Ycoordinate
    3.769,                    !- Vertex 12 Zcoordinate
    0.028,                    !- Vertex 13 Xcoordinate
    10.11,                    !- Vertex 13 Ycoordinate
    3.769,                    !- Vertex 13 Zcoordinate
    0.678,                    !- Vertex 14 Xcoordinate
    13.919,                   !- Vertex 14 Ycoordinate
    3.769,                    !- Vertex 14 Zcoordinate
    0.78,                     !- Vertex 15 Xcoordinate
    13.929,                   !- Vertex 15 Ycoordinate
    3.769,                    !- Vertex 15 Zcoordinate
    0.87,                     !- Vertex 16 Xcoordinate
    14.566,                   !- Vertex 16 Ycoordinate
    3.769,                    !- Vertex 16 Zcoordinate
    4.051,                    !- Vertex 17 Xcoordinate
    14.03,                    !- Vertex 17 Ycoordinate
    3.769,                    !- Vertex 17 Zcoordinate
    4.271,                    !- Vertex 18 Xcoordinate
    15.319,                   !- Vertex 18 Ycoordinate
    3.769,                    !- Vertex 18 Zcoordinate
    8.447,                    !- Vertex 19 Xcoordinate
    14.615,                   !- Vertex 19 Ycoordinate
    3.769,                    !- Vertex 19 Zcoordinate
    9.076,                    !- Vertex 20 Xcoordinate
    14.094,                   !- Vertex 20 Ycoordinate
    3.769,                    !- Vertex 20 Zcoordinate
    9.204,                    !- Vertex 21 Xcoordinate
    14.487,                   !- Vertex 21 Ycoordinate
    3.769,                    !- Vertex 21 Zcoordinate
    9.72,                     !- Vertex 22 Xcoordinate
    14.399,                   !- Vertex 22 Ycoordinate
    3.769,                    !- Vertex 22 Zcoordinate
    9.521,                    !- Vertex 23 Xcoordinate
    13.129,                   !- Vertex 23 Ycoordinate
    3.769,                    !- Vertex 23 Zcoordinate
    12.28,                    !- Vertex 24 Xcoordinate
    12.689,                   !- Vertex 24 Ycoordinate
    3.769,                    !- Vertex 24 Zcoordinate
    12.45,                    !- Vertex 25 Xcoordinate
    13.95,                    !- Vertex 25 Ycoordinate
    3.769,                    !- Vertex 25 Zcoordinate
    18.57,                    !- Vertex 26 Xcoordinate
    12.98,                    !- Vertex 26 Ycoordinate
    3.769,                    !- Vertex 26 Zcoordinate
    18.03,                    !- Vertex 27 Xcoordinate
    9.62,                     !- Vertex 27 Ycoordinate
    3.769,                    !- Vertex 27 Zcoordinate
    18.651,                   !- Vertex 28 Xcoordinate
    9.519,                    !- Vertex 28 Ycoordinate
    3.769,                    !- Vertex 28 Zcoordinate
    18.141,                   !- Vertex 29 Xcoordinate
    6.319,                    !- Vertex 29 Ycoordinate
    3.769,                    !- Vertex 29 Zcoordinate
    17.886,                   !- Vertex 30 Xcoordinate
    6.36,                     !- Vertex 30 Ycoordinate
    3.769;                    !- Vertex 30 Zcoordinate

BUILDINGSURFACE:DETAILED,
    F_1,                      !- Name
    Wall,                     !- Surface Type
    C_F,                      !- Construction Name
    Zone_0599100000270056,    !- Zone Name
    ,                         !- Space Name
    Outdoors,                 !- Outside Boundary Condition
    ,                         !- Outside Boundary Condition Object
    SunExposed,               !- Sun Exposure
    WindExposed,              !- Wind Exposure
    0.5,                      !- View Factor to Ground
    4,                        !- Number of Vertices
    9.076,                    !- Vertex 1 Xcoordinate
    14.094,                   !- Vertex 1 Ycoordinate
    9.078,                    !- Vertex 1 Zcoordinate
    9.076,                    !- Vertex 2 Xcoordinate
    14.094,                   !- Vertex 2 Ycoordinate
    3.769,                    !- Vertex 2 Zcoordinate
    8.447,                    !- Vertex 3 Xcoordinate
    14.615,                   !- Vertex 3 Ycoordinate
    3.769,                    !- Vertex 3 Zcoordinate
    8.447,                    !- Vertex 4 Xcoordinate
    14.615,                   !- Vertex 4 Ycoordinate
    9.078;                    !- Vertex 4 Zcoordinate

BUILDINGSURFACE:DETAILED,
    F_2,                      !- Name
    Wall,                     !- Surface Type
    C_F,                      !- Construction Name
    Zone_0599100000270056,    !- Zone Name
    ,                         !- Space Name
    Outdoors,                 !- Outside Boundary Condition
    ,                         !- Outside Boundary Condition Object
    SunExposed,               !- Sun Exposure
    WindExposed,              !- Wind Exposure
    0.5,                      !- View Factor to Ground
    4,                        !- Number of Vertices
    9.204,                    !- Vertex 1 Xcoordinate
    14.487,                   !- Vertex 1 Ycoordinate
    9.078,                    !- Vertex 1 Zcoordinate
    9.204,                    !- Vertex 2 Xcoordinate
    14.487,                   !- Vertex 2 Ycoordinate
    3.769,                    !- Vertex 2 Zcoordinate
    9.076,                    !- Vertex 3 Xcoordinate
    14.094,                   !- Vertex 3 Ycoordinate
    3.769,                    !- Vertex 3 Zcoordinate
    9.076,                    !- Vertex 4 Xcoordinate
    14.094,                   !- Vertex 4 Ycoordinate
    9.078;                    !- Vertex 4 Zcoordinate

BUILDINGSURFACE:DETAILED,
    F_3,                      !- Name
    Wall,                     !- Surface Type
    C_F,                      !- Construction Name
    Zone_0599100000270056,    !- Zone Name
    ,                         !- Space Name
    Outdoors,                 !- Outside Boundary Condition
    ,                         !- Outside Boundary Condition Object
    SunExposed,               !- Sun Exposure
    WindExposed,              !- Wind Exposure
    0.5,                      !- View Factor to Ground
    4,                        !- Number of Vertices
    12.641,                   !- Vertex 1 Xcoordinate
    0,                        !- Vertex 1 Ycoordinate
    9.078,                    !- Vertex 1 Zcoordinate
    12.641,                   !- Vertex 2 Xcoordinate
    0,                        !- Vertex 2 Ycoordinate
    3.769,                    !- Vertex 2 Zcoordinate
    13.44,                    !- Vertex 3 Xcoordinate
    4.929,                    !- Vertex 3 Ycoordinate
    3.769,                    !- Vertex 3 Zcoordinate
    13.44,                    !- Vertex 4 Xcoordinate
    4.929,                    !- Vertex 4 Ycoordinate
    9.078;                    !- Vertex 4 Zcoordinate

BUILDINGSURFACE:DETAILED,
    F_4,                      !- Name
    Wall,                     !- Surface Type
    C_F,                      !- Construction Name
    Zone_0599100000270056,    !- Zone Name
    ,                         !- Space Name
    Outdoors,                 !- Outside Boundary Condition
    ,                         !- Outside Boundary Condition Object
    SunExposed,               !- Sun Exposure
    WindExposed,              !- Wind Exposure
    0.5,                      !- View Factor to Ground
    4,                        !- Number of Vertices
    13.44,                    !- Vertex 1 Xcoordinate
    4.929,                    !- Vertex 1 Ycoordinate
    9.078,                    !- Vertex 1 Zcoordinate
    13.44,                    !- Vertex 2 Xcoordinate
    4.929,                    !- Vertex 2 Ycoordinate
    3.769,                    !- Vertex 2 Zcoordinate
    12.341,                   !- Vertex 3 Xcoordinate
    5.11,                     !- Vertex 3 Ycoordinate
    3.769,                    !- Vertex 3 Zcoordinate
    12.341,                   !- Vertex 4 Xcoordinate
    5.11,                     !- Vertex 4 Ycoordinate
    9.078;                    !- Vertex 4 Zcoordinate

BUILDINGSURFACE:DETAILED,
    F_5,                      !- Name
    Wall,                     !- Surface Type
    C_F,                      !- Construction Name
    Zone_0599100000270056,    !- Zone Name
    ,                         !- Space Name
    Outdoors,                 !- Outside Boundary Condition
    ,                         !- Outside Boundary Condition Object
    SunExposed,               !- Sun Exposure
    WindExposed,              !- Wind Exposure
    0.5,                      !- View Factor to Ground
    4,                        !- Number of Vertices
    9.72,                     !- Vertex 1 Xcoordinate
    14.399,                   !- Vertex 1 Ycoordinate
    9.078,                    !- Vertex 1 Zcoordinate
    9.72,                     !- Vertex 2 Xcoordinate
    14.399,                   !- Vertex 2 Ycoordinate
    3.769,                    !- Vertex 2 Zcoordinate
    9.204,                    !- Vertex 3 Xcoordinate
    14.487,                   !- Vertex 3 Ycoordinate
    3.769,                    !- Vertex 3 Zcoordinate
    9.204,                    !- Vertex 4 Xcoordinate
    14.487,                   !- Vertex 4 Ycoordinate
    9.078;                    !- Vertex 4 Zcoordinate

BUILDINGSURFACE:DETAILED,
    F_6,                      !- Name
    Wall,                     !- Surface Type
    C_F,                      !- Construction Name
    Zone_0599100000270056,    !- Zone Name
    ,                         !- Space Name
    Outdoors,                 !- Outside Boundary Condition
    ,                         !- Outside Boundary Condition Object
    SunExposed,               !- Sun Exposure
    WindExposed,              !- Wind Exposure
    0.5,                      !- View Factor to Ground
    4,                        !- Number of Vertices
    0.678,                    !- Vertex 1 Xcoordinate
    13.919,                   !- Vertex 1 Ycoordinate
    9.078,                    !- Vertex 1 Zcoordinate
    0.678,                    !- Vertex 2 Xcoordinate
    13.919,                   !- Vertex 2 Ycoordinate
    3.769,                    !- Vertex 2 Zcoordinate
    0.028,                    !- Vertex 3 Xcoordinate
    10.11,                    !- Vertex 3 Ycoordinate
    3.769,                    !- Vertex 3 Zcoordinate
    0.028,                    !- Vertex 4 Xcoordinate
    10.11,                    !- Vertex 4 Ycoordinate
    9.078;                    !- Vertex 4 Zcoordinate

BUILDINGSURFACE:DETAILED,
    F_7,                      !- Name
    Wall,                     !- Surface Type
    C_F,                      !- Construction Name
    Zone_0599100000270056,    !- Zone Name
    ,                         !- Space Name
    Outdoors,                 !- Outside Boundary Condition
    ,                         !- Outside Boundary Condition Object
    SunExposed,               !- Sun Exposure
    WindExposed,              !- Wind Exposure
    0.5,                      !- View Factor to Ground
    4,                        !- Number of Vertices
    0.028,                    !- Vertex 1 Xcoordinate
    10.11,                    !- Vertex 1 Ycoordinate
    9.078,                    !- Vertex 1 Zcoordinate
    0.028,                    !- Vertex 2 Xcoordinate
    10.11,                    !- Vertex 2 Ycoordinate
    3.769,                    !- Vertex 2 Zcoordinate
    0.238,                    !- Vertex 3 Xcoordinate
    10.108,                   !- Vertex 3 Ycoordinate
    3.769,                    !- Vertex 3 Zcoordinate
    0.238,                    !- Vertex 4 Xcoordinate
    10.108,                   !- Vertex 4 Ycoordinate
    9.078;                    !- Vertex 4 Zcoordinate

BUILDINGSURFACE:DETAILED,
    F_8,                      !- Name
    Wall,                     !- Surface Type
    C_F,                      !- Construction Name
    Zone_0599100000270056,    !- Zone Name
    ,                         !- Space Name
    Outdoors,                 !- Outside Boundary Condition
    ,                         !- Outside Boundary Condition Object
    SunExposed,               !- Sun Exposure
    WindExposed,              !- Wind Exposure
    0.5,                      !- View Factor to Ground
    4,                        !- Number of Vertices
    0.238,                    !- Vertex 1 Xcoordinate
    10.108,                   !- Vertex 1 Ycoordinate
    9.078,                    !- Vertex 1 Zcoordinate
    0.238,                    !- Vertex 2 Xcoordinate
    10.108,                   !- Vertex 2 Ycoordinate
    3.769,                    !- Vertex 2 Zcoordinate
    0.21,                     !- Vertex 3 Xcoordinate
    9.914,                    !- Vertex 3 Ycoordinate
    3.769,                    !- Vertex 3 Zcoordinate
    0.21,                     !- Vertex 4 Xcoordinate
    9.914,                    !- Vertex 4 Ycoordinate
    9.078;                    !- Vertex 4 Zcoordinate

BUILDINGSURFACE:DETAILED,
    F_9,                      !- Name
    Wall,                     !- Surface Type
    C_F,                      !- Construction Name
    Zone_0599100000270056,    !- Zone Name
    ,                         !- Space Name
    Outdoors,                 !- Outside Boundary Condition
    ,                         !- Outside Boundary Condition Object
    SunExposed,               !- Sun Exposure
    WindExposed,              !- Wind Exposure
    0.5,                      !- View Factor to Ground
    4,                        !- Number of Vertices
    12.341,                   !- Vertex 1 Xcoordinate
    5.11,                     !- Vertex 1 Ycoordinate
    9.078,                    !- Vertex 1 Zcoordinate
    12.341,                   !- Vertex 2 Xcoordinate
    5.11,                     !- Vertex 2 Ycoordinate
    3.769,                    !- Vertex 2 Zcoordinate
    12.651,                   !- Vertex 3 Xcoordinate
    7.019,                    !- Vertex 3 Ycoordinate
    3.769,                    !- Vertex 3 Zcoordinate
    12.651,                   !- Vertex 4 Xcoordinate
    7.019,                    !- Vertex 4 Ycoordinate
    9.078;                    !- Vertex 4 Zcoordinate

BUILDINGSURFACE:DETAILED,
    F_10,                     !- Name
    Wall,                     !- Surface Type
    C_F,                      !- Construction Name
    Zone_0599100000270056,    !- Zone Name
    ,                         !- Space Name
    Outdoors,                 !- Outside Boundary Condition
    ,                         !- Outside Boundary Condition Object
    SunExposed,               !- Sun Exposure
    WindExposed,              !- Wind Exposure
    0.5,                      !- View Factor to Ground
    4,                        !- Number of Vertices
    6.081,                    !- Vertex 1 Xcoordinate
    1.06,                     !- Vertex 1 Ycoordinate
    9.078,                    !- Vertex 1 Zcoordinate
    6.081,                    !- Vertex 2 Xcoordinate
    1.06,                     !- Vertex 2 Ycoordinate
    3.769,                    !- Vertex 2 Zcoordinate
    12.641,                   !- Vertex 3 Xcoordinate
    0,                        !- Vertex 3 Ycoordinate
    3.769,                    !- Vertex 3 Zcoordinate
    12.641,                   !- Vertex 4 Xcoordinate
    0,                        !- Vertex 4 Ycoordinate
    9.078;                    !- Vertex 4 Zcoordinate

BUILDINGSURFACE:DETAILED,
    F_11,                     !- Name
    Wall,                     !- Surface Type
    C_F,                      !- Construction Name
    Zone_0599100000270056,    !- Zone Name
    ,                         !- Space Name
    Outdoors,                 !- Outside Boundary Condition
    ,                         !- Outside Boundary Condition Object
    SunExposed,               !- Sun Exposure
    WindExposed,              !- Wind Exposure
    0.5,                      !- View Factor to Ground
    4,                        !- Number of Vertices
    8.44,                     !- Vertex 1 Xcoordinate
    8.519,                    !- Vertex 1 Ycoordinate
    9.078,                    !- Vertex 1 Zcoordinate
    8.44,                     !- Vertex 2 Xcoordinate
    8.519,                    !- Vertex 2 Ycoordinate
    3.769,                    !- Vertex 2 Zcoordinate
    7.98,                     !- Vertex 3 Xcoordinate
    5.819,                    !- Vertex 3 Ycoordinate
    3.769,                    !- Vertex 3 Zcoordinate
    7.98,                     !- Vertex 4 Xcoordinate
    5.819,                    !- Vertex 4 Ycoordinate
    9.078;                    !- Vertex 4 Zcoordinate

BUILDINGSURFACE:DETAILED,
    F_12,                     !- Name
    Wall,                     !- Surface Type
    C_F,                      !- Construction Name
    Zone_0599100000270056,    !- Zone Name
    ,                         !- Space Name
    Outdoors,                 !- Outside Boundary Condition
    ,                         !- Outside Boundary Condition Object
    SunExposed,               !- Sun Exposure
    WindExposed,              !- Wind Exposure
    0.5,                      !- View Factor to Ground
    4,                        !- Number of Vertices
    18.651,                   !- Vertex 1 Xcoordinate
    9.519,                    !- Vertex 1 Ycoordinate
    9.078,                    !- Vertex 1 Zcoordinate
    18.651,                   !- Vertex 2 Xcoordinate
    9.519,                    !- Vertex 2 Ycoordinate
    3.769,                    !- Vertex 2 Zcoordinate
    18.03,                    !- Vertex 3 Xcoordinate
    9.62,                     !- Vertex 3 Ycoordinate
    3.769,                    !- Vertex 3 Zcoordinate
    18.03,                    !- Vertex 4 Xcoordinate
    9.62,                     !- Vertex 4 Ycoordinate
    9.078;                    !- Vertex 4 Zcoordinate

BUILDINGSURFACE:DETAILED,
    F_13,                     !- Name
    Wall,                     !- Surface Type
    C_F,                      !- Construction Name
    Zone_0599100000270056,    !- Zone Name
    ,                         !- Space Name
    Outdoors,                 !- Outside Boundary Condition
    ,                         !- Outside Boundary Condition Object
    SunExposed,               !- Sun Exposure
    WindExposed,              !- Wind Exposure
    0.5,                      !- View Factor to Ground
    4,                        !- Number of Vertices
    9.521,                    !- Vertex 1 Xcoordinate
    13.129,                   !- Vertex 1 Ycoordinate
    9.078,                    !- Vertex 1 Zcoordinate
    9.521,                    !- Vertex 2 Xcoordinate
    13.129,                   !- Vertex 2 Ycoordinate
    3.769,                    !- Vertex 2 Zcoordinate
    9.72,                     !- Vertex 3 Xcoordinate
    14.399,                   !- Vertex 3 Ycoordinate
    3.769,                    !- Vertex 3 Zcoordinate
    9.72,                     !- Vertex 4 Xcoordinate
    14.399,                   !- Vertex 4 Ycoordinate
    9.078;                    !- Vertex 4 Zcoordinate

BUILDINGSURFACE:DETAILED,
    F_14,                     !- Name
    Wall,                     !- Surface Type
    C_F,                      !- Construction Name
    Zone_0599100000270056,    !- Zone Name
    ,                         !- Space Name
    Outdoors,                 !- Outside Boundary Condition
    ,                         !- Outside Boundary Condition Object
    SunExposed,               !- Sun Exposure
    WindExposed,              !- Wind Exposure
    0.5,                      !- View Factor to Ground
    4,                        !- Number of Vertices
    18.03,                    !- Vertex 1 Xcoordinate
    9.62,                     !- Vertex 1 Ycoordinate
    9.078,                    !- Vertex 1 Zcoordinate
    18.03,                    !- Vertex 2 Xcoordinate