!- Windows Line endings 

Version,
    24.2;                     !- Version Identifier

SimulationControl,
    No,                       !- Do Zone Sizing Calculation
    No,                       !- Do System Sizing Calculation
    No,                       !- Do Plant Sizing Calculation
    No,                       !- Run Simulation for Sizing Periods
    Yes,                      !- Run Simulation for Weather File Run Periods
    No,                       !- Do HVAC Sizing Simulation for Sizing Periods
    1;                        !- Maximum Number of HVAC Sizing Simulation Passes

BUILDING,
    Pand.0599100000393667,    !- Name
    0,                        !- North Axis
    City,                     !- Terrain
    0.04,                     !- Loads Convergence Tolerance Value
    0.4,                      !- Temperature Convergence Tolerance Value
    FullExterior,             !- Solar Distribution
    25,                       !- Maximum Number of Warmup Days
    1;                        !- Minimum Number of Warmup Days

Timestep,
    6;                        !- Number of Timesteps per Hour

Site:Location,
    Rotterdam.The.Hague.AP_ZH_NLD Design_Conditions,    !- Name
    51.96,                    !- Latitude
    4.45,                     !- Longitude
    1,                        !- Time Zone
    -4.5;                     !- Elevation

RunPeriod,
    Run Period 1,             !- Name
    1,                        !- Begin Month
    1,                        !- Begin Day of Month
    ,                         !- Begin Year
    12,                       !- End Month
    31,                       !- End Day of Month
    ,                         !- End Year
    ,                         !- Day of Week for Start Day
    Yes,                      !- Use Weather File Holidays and Special Days
    Yes,                      !- Use Weather File Daylight Saving Period
    No,                       !- Apply Weekend Holiday Rule
    Yes,                      !- Use Weather File Rain Indicators
    Yes,                      !- Use Weather File Snow Indicators
    No,                       !- Treat Weather as Actual
    Hour24;                   !- First Hour Interpolation Starting Values

RunPeriodControl:DaylightSavingTime,
    Last Sunday in March,     !- Start Date
    Last Sunday in October;    !- End Date

SITE:GROUNDTEMPERATURE:BUILDINGSURFACE,
    18,                       !- January Ground Temperature
    18,                       !- February Ground Temperature
    18,                       !- March Ground Temperature
    18,                       !- April Ground Temperature
    18,                       !- May Ground Temperature
    18,                       !- June Ground Temperature
    18,                       !- July Ground Temperature
    18,                       !- August Ground Temperature
    18,                       !- September Ground Temperature
    18,                       !- October Ground Temperature
    18,                       !- November Ground Temperature
    18;                       !- December Ground Temperature

SCHEDULETYPELIMITS,
    Temperature,              !- Name
    -100,                     !- Lower Limit Value
    100,                      !- Upper Limit Value
    CONTINUOUS,               !- Numeric Type
    Temperature;              !- Unit Type

SCHEDULETYPELIMITS,
    Fraction,                 !- Name
    0,                        !- Lower Limit Value
    1,                        !- Upper Limit Value
    CONTINUOUS,               !- Numeric Type
    Dimensionless;            !- Unit Type

SCHEDULETYPELIMITS,
    Control Type,             !- Name
    0,                        !- Lower Limit Value
    4,                        !- Upper Limit Value
    DISCRETE,                 !- Numeric Type
    Dimensionless;            !- Unit Type

SCHEDULE:COMPACT,
    HeatingSetpoint_Zone_0599100000393667,    !- Name
    Temperature,              !- Schedule Type Limits Name
    Through: 12/31,           !- Field 1
    For: AllDays,             !- Field 2
    Until: 24:00,             !- Field 3
    21.0;                     !- Field 4

SCHEDULE:COMPACT,
    CoolingSetpoint_Zone_0599100000393667,    !- Name
    Temperature,              !- Schedule Type Limits Name
    Through: 12/31,           !- Field 1
    For: AllDays,             !- Field 2
    Until: 24:00,             !- Field 3
    24.0;                     !- Field 4

SCHEDULE:COMPACT,
    DualSetpointControlType,    !- Name
    Control Type,             !- Schedule Type Limits Name
    Through: 12/31,           !- Field 1
    For: AllDays,             !- Field 2
    Until: 24:00,             !- Field 3
    4;                        !- Field 4

SCHEDULE:COMPACT,
    AlwaysOn,                 !- Name
    Fraction,                 !- Schedule Type Limits Name
    Through: 12/31,           !- Field 1
    For: AllDays,             !- Field 2
    Until: 24:00,             !- Field 3
    1.0;                      !- Field 4

MATERIAL,
    G.D.1992-2005,            !- Name
    MediumSmooth,             !- Roughness
    0.15,                     !- Thickness
    0.06,                     !- Conductivity
    540,                      !- Density
    1210,                     !- Specific Heat
    0.9,                      !- Thermal Absorptance
    0.7,                      !- Solar Absorptance
    0.7;                      !- Visible Absorptance

MATERIAL,
    F.D.1992-2005,            !- Name
    Rough,                    !- Roughness
    0.3,                      !- Thickness
    0.12,                     !- Conductivity
    1920,                     !- Density
    840,                      !- Specific Heat
    0.9,                      !- Thermal Absorptance
    0.7,                      !- Solar Absorptance
    0.7;                      !- Visible Absorptance

MATERIAL,
    R.D.1992-2005,            !- Name
    MediumRough,              !- Roughness
    0.2,                      !- Thickness
    0.08,                     !- Conductivity
    1500,                     !- Density
    1000,                     !- Specific Heat
    0.9,                      !- Thermal Absorptance
    0.7,                      !- Solar Absorptance
    0.7;                      !- Visible Absorptance

WINDOWMATERIAL:SIMPLEGLAZINGSYSTEM,
    W.D.1992-2005,            !- Name
    2.9,                      !- UFactor
    0.6,                      !- Solar Heat Gain Coefficient
    0.6;                      !- Visible Transmittance

CONSTRUCTION,
    C_G,                      !- Name
    G.D.1992-2005;            !- Outside Layer

CONSTRUCTION,
    C_F,                      !- Name
    F.D.1992-2005;            !- Outside Layer

CONSTRUCTION,
    C_R,                      !- Name
    R.D.1992-2005;            !- Outside Layer

GlobalGeometryRules,
    UpperLeftCorner,          !- Starting Vertex Position
    Counterclockwise,         !- Vertex Entry Direction
    World,                    !- Coordinate System
    World,                    !- Daylighting Reference Point Coordinate System
    Relative;                 !- Rectangular Surface Coordinate System

ZONE,
    Zone_0599100000393667,    !- Name
    0,                        !- Direction of Relative North
    0,                        !- X Origin
    0,                        !- Y Origin
    0,                        !- Z Origin
    1,                        !- Type
    1,                        !- Multiplier
    Autocalculate,            !- Ceiling Height
    Autocalculate,            !- Volume
    autocalculate,            !- Floor Area
    ,                         !- Zone Inside Convection Algorithm
    ,                         !- Zone Outside Convection Algorithm
    Yes;                      !- Part of Total Floor Area

BUILDINGSURFACE:DETAILED,
    G_0,                      !- Name
    Floor,                    !- Surface Type
    C_G,                      !- Construction Name
    Zone_0599100000393667,    !- Zone Name
    ,                         !- Space Name
    Ground,                   !- Outside Boundary Condition
    ,                         !- Outside Boundary Condition Object
    SunExposed,               !- Sun Exposure
    WindExposed,              !- Wind Exposure
    0.5,                      !- View Factor to Ground
    52,                       !- Number of Vertices
    21.063,                   !- Vertex 1 Xcoordinate
    6.776,                    !- Vertex 1 Ycoordinate
    0,                        !- Vertex 1 Zcoordinate
    12.964,                   !- Vertex 2 Xcoordinate
    8.898,                    !- Vertex 2 Ycoordinate
    0,                        !- Vertex 2 Zcoordinate
    13.299,                   !- Vertex 3 Xcoordinate
    10.175,                   !- Vertex 3 Ycoordinate
    0,                        !- Vertex 3 Zcoordinate
    9.505,                    !- Vertex 4 Xcoordinate
    11.16,                    !- Vertex 4 Ycoordinate
    0,                        !- Vertex 4 Zcoordinate
    9.338,                    !- Vertex 5 Xcoordinate
    10.521,                   !- Vertex 5 Ycoordinate
    0,                        !- Vertex 5 Zcoordinate
    9.841,                    !- Vertex 6 Xcoordinate
    10.388,                   !- Vertex 6 Ycoordinate
    0,                        !- Vertex 6 Zcoordinate
    7.18,                     !- Vertex 7 Xcoordinate
    0.229,                    !- Vertex 7 Ycoordinate
    0,                        !- Vertex 7 Zcoordinate
    7.129,                    !- Vertex 8 Xcoordinate
    0.361,                    !- Vertex 8 Ycoordinate
    0,                        !- Vertex 8 Zcoordinate
    7.08,                     !- Vertex 9 Xcoordinate
    0.169,                    !- Vertex 9 Ycoordinate
    0,                        !- Vertex 9 Zcoordinate
    6.962,                    !- Vertex 10 Xcoordinate
    0.2,                      !- Vertex 10 Ycoordinate
    0,                        !- Vertex 10 Zcoordinate
    7.05,                     !- Vertex 11 Xcoordinate
    0.05,                     !- Vertex 11 Ycoordinate
    0,                        !- Vertex 11 Zcoordinate
    0.049,                    !- Vertex 12 Xcoordinate
    1.834,                    !- Vertex 12 Ycoordinate
    0,                        !- Vertex 12 Zcoordinate
    0.276,                    !- Vertex 13 Xcoordinate
    1.967,                    !- Vertex 13 Ycoordinate
    0,                        !- Vertex 13 Zcoordinate
    0.048,                    !- Vertex 14 Xcoordinate
    2.027,                    !- Vertex 14 Ycoordinate
    0,                        !- Vertex 14 Zcoordinate
    2.392,                    !- Vertex 15 Xcoordinate
    10.964,                   !- Vertex 15 Ycoordinate
    0,                        !- Vertex 15 Zcoordinate
    2.492,                    !- Vertex 16 Xcoordinate
    11.007,                   !- Vertex 16 Ycoordinate
    0,                        !- Vertex 16 Zcoordinate
    2.82,                     !- Vertex 17 Xcoordinate
    12.227,                   !- Vertex 17 Ycoordinate
    0,                        !- Vertex 17 Zcoordinate
    2.922,                    !- Vertex 18 Xcoordinate
    12.201,                   !- Vertex 18 Ycoordinate
    0,                        !- Vertex 18 Zcoordinate
    5.513,                    !- Vertex 19 Xcoordinate
    22.073,                   !- Vertex 19 Ycoordinate
    0,                        !- Vertex 19 Zcoordinate
    8.239,                    !- Vertex 20 Xcoordinate
    21.357,                   !- Vertex 20 Ycoordinate
    0,                        !- Vertex 20 Zcoordinate
    8.726,                    !- Vertex 21 Xcoordinate
    23.215,                   !- Vertex 21 Ycoordinate
    0,                        !- Vertex 21 Zcoordinate
    6.424,                    !- Vertex 22 Xcoordinate
    23.817,                   !- Vertex 22 Ycoordinate
    0,                        !- Vertex 22 Zcoordinate
    9.503,                    !- Vertex 23 Xcoordinate
    35.551,                   !- Vertex 23 Ycoordinate
    0,                        !- Vertex 23 Zcoordinate
    9.551,                    !- Vertex 24 Xcoordinate
    35.466,                   !- Vertex 24 Ycoordinate
    0,                        !- Vertex 24 Zcoordinate
    9.582,                    !- Vertex 25 Xcoordinate
    35.599,                   !- Vertex 25 Ycoordinate
    0,                        !- Vertex 25 Zcoordinate
    15.39,                    !- Vertex 26 Xcoordinate
    34.071,                   !- Vertex 26 Ycoordinate
    0,                        !- Vertex 26 Zcoordinate
    15.423,                   !- Vertex 27 Xcoordinate
    33.978,                   !- Vertex 27 Ycoordinate
    0,                        !- Vertex 27 Zcoordinate
    16.654,                   !- Vertex 28 Xcoordinate
    33.645,                   !- Vertex 28 Ycoordinate
    0,                        !- Vertex 28 Zcoordinate
    16.158,                   !- Vertex 29 Xcoordinate
    31.919,                   !- Vertex 29 Ycoordinate
    0,                        !- Vertex 29 Zcoordinate
    16.205,                   !- Vertex 30 Xcoordinate
    31.785,                   !- Vertex 30 Ycoordinate
    0,                        !- Vertex 30 Zcoordinate
    13.627,                   !- Vertex 31 Xcoordinate
    21.934,                   !- Vertex 31 Ycoordinate
    0,                        !- Vertex 31 Zcoordinate
    12.737,                   !- Vertex 32 Xcoordinate
    22.166,                   !- Vertex 32 Ycoordinate
    0,                        !- Vertex 32 Zcoordinate
    12.253,                   !- Vertex 33 Xcoordinate
    20.318,                   !- Vertex 33 Ycoordinate
    0,                        !- Vertex 33 Zcoordinate
    15.719,                   !- Vertex 34 Xcoordinate
    19.408,                   !- Vertex 34 Ycoordinate
    0,                        !- Vertex 34 Zcoordinate
    16.02,                    !- Vertex 35 Xcoordinate
    20.565,                   !- Vertex 35 Ycoordinate
    0,                        !- Vertex 35 Zcoordinate
    16.309,                   !- Vertex 36 Xcoordinate
    20.073,                   !- Vertex 36 Ycoordinate
    0,                        !- Vertex 36 Zcoordinate
    16.735,                   !- Vertex 37 Xcoordinate
    20.403,                   !- Vertex 37 Ycoordinate
    0,                        !- Vertex 37 Zcoordinate
    22.825,                   !- Vertex 38 Xcoordinate
    18.815,                   !- Vertex 38 Ycoordinate
    0,                        !- Vertex 38 Zcoordinate
    22.963,                   !- Vertex 39 Xcoordinate
    19.338,                   !- Vertex 39 Ycoordinate
    0,                        !- Vertex 39 Zcoordinate
    29.79,                    !- Vertex 40 Xcoordinate
    17.553,                   !- Vertex 40 Ycoordinate
    0,                        !- Vertex 40 Zcoordinate
    29.849,                   !- Vertex 41 Xcoordinate
    17.471,                   !- Vertex 41 Ycoordinate
    0,                        !- Vertex 41 Zcoordinate
    31.139,                   !- Vertex 42 Xcoordinate
    17.196,                   !- Vertex 42 Ycoordinate
    0,                        !- Vertex 42 Zcoordinate
    31,                       !- Vertex 43 Xcoordinate
    16.654,                   !- Vertex 43 Ycoordinate
    0,                        !- Vertex 43 Zcoordinate
    37.786,                   !- Vertex 44 Xcoordinate
    14.899,                   !- Vertex 44 Ycoordinate
    0,                        !- Vertex 44 Zcoordinate
    35.927,                   !- Vertex 45 Xcoordinate
    7.893,                    !- Vertex 45 Ycoordinate
    0,                        !- Vertex 45 Zcoordinate
    36.682,                   !- Vertex 46 Xcoordinate
    7.695,                    !- Vertex 46 Ycoordinate
    0,                        !- Vertex 46 Zcoordinate
    35.924,                   !- Vertex 47 Xcoordinate
    4.784,                    !- Vertex 47 Ycoordinate
    0,                        !- Vertex 47 Zcoordinate
    35.167,                   !- Vertex 48 Xcoordinate
    4.978,                    !- Vertex 48 Ycoordinate
    0,                        !- Vertex 48 Zcoordinate
    34.729,                   !- Vertex 49 Xcoordinate
    3.195,                    !- Vertex 49 Ycoordinate
    0,                        !- Vertex 49 Zcoordinate
    26.635,                   !- Vertex 50 Xcoordinate
    5.304,                    !- Vertex 50 Ycoordinate
    0,                        !- Vertex 50 Zcoordinate
    26.495,                   !- Vertex 51 Xcoordinate
    4.773,                    !- Vertex 51 Ycoordinate
    0,                        !- Vertex 51 Zcoordinate
    20.922,                   !- Vertex 52 Xcoordinate
    6.246,                    !- Vertex 52 Ycoordinate
    0;                        !- Vertex 52 Zcoordinate

BUILDINGSURFACE:DETAILED,
    F_1,                      !- Name
    Wall,                     !- Surface Type
    C_F,                      !- Construction Name
    Zone_0599100000393667,    !- Zone Name
    ,                         !- Space Name
    Outdoors,                 !- Outside Boundary Condition
    ,                         !- Outside Boundary Condition Object
    SunExposed,               !- Sun Exposure
    WindExposed,              !- Wind Exposure
    0.5,                      !- View Factor to Ground
    4,                        !- Number of Vertices
    9.338,                    !- Vertex 1 Xcoordinate
    10.521,                   !- Vertex 1 Ycoordinate
    9.113,                    !- Vertex 1 Zcoordinate
    9.338,                    !- Vertex 2 Xcoordinate
    10.521,                   !- Vertex 2 Ycoordinate
    0,                        !- Vertex 2 Zcoordinate
    9.505,                    !- Vertex 3 Xcoordinate
    11.16,                    !- Vertex 3 Ycoordinate
    0,                        !- Vertex 3 Zcoordinate
    9.505,                    !- Vertex 4 Xcoordinate
    11.16,                    !- Vertex 4 Ycoordinate
    9.113;                    !- Vertex 4 Zcoordinate

BUILDINGSURFACE:DETAILED,
    F_2,                      !- Name
    Wall,                     !- Surface Type
    C_F,                      !- Construction Name
    Zone_0599100000393667,    !- Zone Name
    ,                         !- Space Name
    Outdoors,                 !- Outside Boundary Condition
    ,                         !- Outside Boundary Condition Object
    SunExposed,               !- Sun Exposure
    WindExposed,              !- Wind Exposure
    0.5,                      !- View Factor to Ground
    4,                        !- Number of Vertices
    16.158,                   !- Vertex 1 Xcoordinate
    31.919,                   !- Vertex 1 Ycoordinate
    9.113,                    !- Vertex 1 Zcoordinate
    16.158,                   !- Vertex 2 Xcoordinate
    31.919,                   !- Vertex 2 Ycoordinate
    0,                        !- Vertex 2 Zcoordinate
    16.654,                   !- Vertex 3 Xcoordinate
    33.645,                   !- Vertex 3 Ycoordinate
    0,                        !- Vertex 3 Zcoordinate
    16.654,                   !- Vertex 4 Xcoordinate
    33.645,                   !- Vertex 4 Ycoordinate
    9.113;                    !- Vertex 4 Zcoordinate

BUILDINGSURFACE:DETAILED,
    F_3,                      !- Name
    Wall,                     !- Surface Type
    C_F,                      !- Construction Name
    Zone_0599100000393667,    !- Zone Name
    ,                         !- Space Name
    Outdoors,                 !- Outside Boundary Condition
    ,                         !- Outside Boundary Condition Object
    SunExposed,               !- Sun Exposure
    WindExposed,              !- Wind Exposure
    0.5,                      !- View Factor to Ground
    4,                        !- Number of Vertices
    16.205,                   !- Vertex 1 Xcoordinate
    31.785,                   !- Vertex 1 Ycoordinate
    9.113,                    !- Vertex 1 Zcoordinate
    16.205,                   !- Vertex 2 Xcoordinate
    31.785,                   !- Vertex 2 Ycoordinate
    0,                        !- Vertex 2 Zcoordinate
    16.158,                   !- Vertex 3 Xcoordinate
    31.919,                   !- Vertex 3 Ycoordinate
    0,                        !- Vertex 3 Zcoordinate
    16.158,                   !- Vertex 4 Xcoordinate
    31.919,                   !- Vertex 4 Ycoordinate
    9.113;                    !- Vertex 4 Zcoordinate

BUILDINGSURFACE:DETAILED,
    F_4,                      !- Name
    Wall,                     !- Surface Type
    C_F,                      !- Construction Name
    Zone_0599100000393667,    !- Zone Name
    ,                         !- Space Name
    Outdoors,                 !- Outside Boundary Condition
    ,                         !- Outside Boundary Condition Object
    SunExposed,               !- Sun Exposure
    WindExposed,              !- Wind Exposure
    0.5,                      !- View Factor to Ground
    4,                        !- Number of Vertices
    9.505,                    !- Vertex 1 Xcoordinate
    11.16,                    !- Vertex 1 Ycoordinate
    9.113,                    !- Vertex 1 Zcoordinate
    9.505,                    !- Vertex 2 Xcoordinate
    11.16,                    !- Vertex 2 Ycoordinate
    0,                        !- Vertex 2 Zcoordinate
    13.299,                   !- Vertex 3 Xcoordinate
    10.175,                   !- Vertex 3 Ycoordinate
    0,                        !- Vertex 3 Zcoordinate
    13.299,                   !- Vertex 4 Xcoordinate
    10.175,                   !- Vertex 4 Ycoordinate
    9.113;                    !- Vertex 4 Zcoordinate

BUILDINGSURFACE:DETAILED,
    F_5,                      !- Name
    Wall,                     !- Surface Type
    C_F,                      !- Construction Name
    Zone_0599100000393667,    !- Zone Name
    ,                         !- Space Name
    Outdoors,                 !- Outside Boundary Condition
    ,                         !- Outside Boundary Condition Object
    SunExposed,               !- Sun Exposure
    WindExposed,              !- Wind Exposure
    0.5,                      !- View Factor to Ground
    4,                        !- Number of Vertices
    26.495,                   !- Vertex 1 Xcoordinate
    4.773,                    !- Vertex 1 Ycoordinate
    9.113,                    !- Vertex 1 Zcoordinate
    26.495,                   !- Vertex 2 Xcoordinate
    4.773,                    !- Vertex 2 Ycoordinate
    0,                        !- Vertex 2 Zcoordinate
    26.635,                   !- Vertex 3 Xcoordinate
    5.304,                    !- Vertex 3 Ycoordinate
    0,                        !- Vertex 3 Zcoordinate
    26.635,                   !- Vertex 4 Xcoordinate
    5.304,                    !- Vertex 4 Ycoordinate
    9.113;                    !- Vertex 4 Zcoordinate

BUILDINGSURFACE:DETAILED,
    F_6,                      !- Name
    Wall,                     !- Surface Type
    C_F,                      !- Construction Name
    Zone_0599100000393667,    !- Zone Name
    ,                         !- Space Name
    Outdoors,                 !- Outside Boundary Condition
    ,                         !- Outside Boundary Condition Object
    SunExposed,               !- Sun Exposure
    WindExposed,              !- Wind Exposure
    0.5,                      !- View Factor to Ground
    4,                        !- Number of Vertices
    15.719,                   !- Vertex 1 Xcoordinate
    19.408,                   !- Vertex 1 Ycoordinate
    9.113,                    !- Vertex 1 Zcoordinate
    15.719,                   !- Vertex 2 Xcoordinate
    19.408,                   !- Vertex 2 Ycoordinate
    0,                        !- Vertex 2 Zcoordinate
    12.253,                   !- Vertex 3 Xcoordinate
    20.318,                   !- Vertex 3 Ycoordinate
    0,                        !- Vertex 3 Zcoordinate
    12.253,                   !- Vertex 4 Xcoordinate
    20.318,                   !- Vertex 4 Ycoordinate
    9.113;                    !- Vertex 4 Zcoordinate

BUILDINGSURFACE:DETAILED,
    F_7,                      !- Name
    Wall,                     !- Surface Type
    C_F,                      !- Construction Name
    Zone_0599100000393667,    !- Zone Name
    ,                         !- Space Name
    Outdoors,                 !- Outside Boundary Condition
    ,                         !- Outside Boundary Condition Object
    SunExposed,               !- Sun Exposure
    WindExposed,              !- Wind Exposure
    0.5,                      !- View Factor to Ground
    4,                        !- Number of Vertices
    12.737,                   !- Vertex 1 Xcoordinate
    22.166,                   !- Vertex 1 Ycoordinate
    9.113,                    !- Vertex 1 Zcoordinate
    12.737,                   !- Vertex 2 Xcoordinate
    22.166,                   !- Vertex 2 Ycoordinate
    0,                        !- Vertex 2 Zcoordinate
    13.627,                   !- Vertex 3 Xcoordinate
    21.934,                   !- Vertex 3 Ycoordinate
    0,                        !- Vertex 3 Zcoordinate
    13.627,                   !- Vertex 4 Xcoordinate
    21.934,                   !- Vertex 4 Ycoordinate
    9.113;                    !- Vertex 4 Zcoordinate

BUILDINGSURFACE:DETAILED,
    F_8,                      !- Name
    Wall,                     !- Surface Type
    C_F,                      !- Construction Name
    Zone_0599100000393667,    !- Zone Name
    ,                         !- Space Name
    Outdoors,                 !- Outside Boundary Condition
    ,                         !- Outside Boundary Condition Object
    SunExposed,               !- Sun Exposure
    WindExposed,              !- Wind Exposure
    0.5,                      !- View Factor to Ground
    4,                        !- Number of Vertices
    12.253,                   !- Vertex 1 Xcoordinate
    20.318,                   !- Vertex 1 Ycoordinate
    9.113,                    !- Vertex 1 Zcoordinate
    12.253,                   !- Vertex 2 Xcoordinate
    20.318,                   !- Vertex 2 Ycoordinate
    0,                        !- Vertex 2 Zcoordinate
    12.737,                   !- Vertex 3 Xcoordinate
    22.166,                   !- Vertex 3 Ycoordinate
    0,                        !- Vertex 3 Zcoordinate
    12.737,                   !- Vertex 4 Xcoordinate
    22.166,                   !- Vertex 4 Ycoordinate
    9.113;                    !- Vertex 4 Zcoordinate

BUILDINGSURFACE:DETAILED,
    F_9,                      !- Name
    Wall,                     !- Surface Type
    C_F,                      !- Construction Name
    Zone_0599100000393667,    !- Zone Name
    ,                         !- Space Name
    Outdoors,                 !- Outside Boundary Condition
    ,                         !- Outside Boundary Condition Object
    SunExposed,               !- Sun Exposure
    WindExposed,              !- Wind Exposure
    0.5,                      !- View Factor to Ground
    4,                        !- Number of Vertices
    29.849,                   !- Vertex 1 Xcoordinate
    17.471,                   !- Vertex 1 Ycoordinate
    9.113,                    !- Vertex 1 Zcoordinate
    29.849,                   !- Vertex 2 Xcoordinate
    17.471,                   !- Vertex 2 Ycoordinate
    0,                        !- Vertex 2 Zcoordinate
    29.79,                    !- Vertex 3 Xcoordinate
    17.553,                   !- Vertex 3 Ycoordinate
    0,                        !- Vertex 3 Zcoordinate
    29.79,                    !- Vertex 4 Xcoordinate
    17.553,                   !- Vertex 4 Ycoordinate
    9.113;                    !- Vertex 4 Zcoordinate

BUILDINGSURFACE:DETAILED,
    F_10,                     !- Name
    Wall,                     !- Surface Type
    C_F,                      !- Construction Name
    Zone_0599100000393667,    !- Zone Name
    ,                         !- Space Name
    Outdoors,                 !- Outside Boundary Condition
    ,                         !- Outside Boundary Condition Object
    SunExposed,               !- Sun Exposure
    WindExposed,              !- Wind Exposure
    0.5,                      !- View Factor to Ground
    4,                        !- Number of Vertices
    31.139,                   !- Vertex 1 Xcoordinate
    17.196,                   !- Vertex 1 Ycoordinate
    9.113,                    !- Vertex 1 Zcoordinate
    31.139,                   !- Vertex 2 Xcoordinate
    17.196,                   !- Vertex 2 Ycoordinate
    0,                        !- Vertex 2 Zcoordinate
    29.849,                   !- Vertex 3 Xcoordinate
    17.471,                   !- Vertex 3 Ycoordinate
    0,                        !- Vertex 3 Zcoordinate
    29.849,                   !- Vertex 4 Xcoordinate
    17.471,                   !- Vertex 4 Ycoordinate
    9.113;                    !- Vertex 4 Zcoordinate

BUILDINGSURFACE:DETAILED,
    F_11,                     !- Name
    Wall,                     !- Surface Type
    C_F,                      !- Construction Name
    Zone_0599100000393667,    !- Zone Name
    ,                         !- Space Name
    Outdoors,                 !- Outside Boundary Condition
    ,                         !- Outside Boundary Condition Object
    SunExposed,               !- Sun Exposure
    WindExposed,              !- Wind Exposure
    0.5,                      !- View Factor to Ground
    4,                        !- Number of Vertices
    8.726,                    !- Vertex 1 Xcoordinate
    23.215,                   !- Vertex 1 Ycoordinate
    9.113,                    !- Vertex 1 Zcoordinate
    8.726,                    !- Vertex 2 Xcoordinate