!- Windows Line endings 

Version,
    24.2;                     !- Version Identifier

SimulationControl,
    No,                       !- Do Zone Sizing Calculation
    No,                       !- Do System Sizing Calculation
    No,                       !- Do Plant Sizing Calculation
    No,                       !- Run Simulation for Sizing Periods
    Yes,                      !- Run Simulation for Weather File Run Periods
    No,                       !- Do HVAC Sizing Simulation for Sizing Periods
    1;                        !- Maximum Number of HVAC Sizing Simulation Passes

BUILDING,
    Pand.0599100000322226,    !- Name
    0,                        !- North Axis
    City,                     !- Terrain
    0.04,                     !- Loads Convergence Tolerance Value
    0.4,                      !- Temperature Convergence Tolerance Value
    FullExterior,             !- Solar Distribution
    25,                       !- Maximum Number of Warmup Days
    1;                        !- Minimum Number of Warmup Days

Timestep,
    6;                        !- Number of Timesteps per Hour

Site:Location,
    Rotterdam.The.Hague.AP_ZH_NLD Design_Conditions,    !- Name
    51.96,                    !- Latitude
    4.45,                     !- Longitude
    1,                        !- Time Zone
    -4.5;                     !- Elevation

RunPeriod,
    Run Period 1,             !- Name
    1,                        !- Begin Month
    1,                        !- Begin Day of Month
    ,                         !- Begin Year
    12,                       !- End Month
    31,                       !- End Day of Month
    ,                         !- End Year
    ,                         !- Day of Week for Start Day
    Yes,                      !- Use Weather File Holidays and Special Days
    Yes,                      !- Use Weather File Daylight Saving Period
    No,                       !- Apply Weekend Holiday Rule
    Yes,                      !- Use Weather File Rain Indicators
    Yes,                      !- Use Weather File Snow Indicators
    No,                       !- Treat Weather as Actual
    Hour24;                   !- First Hour Interpolation Starting Values

RunPeriodControl:DaylightSavingTime,
    Last Sunday in March,     !- Start Date
    Last Sunday in October;    !- End Date

SITE:GROUNDTEMPERATURE:BUILDINGSURFACE,
    18,                       !- January Ground Temperature
    18,                       !- February Ground Temperature
    18,                       !- March Ground Temperature
    18,                       !- April Ground Temperature
    18,                       !- May Ground Temperature
    18,                       !- June Ground Temperature
    18,                       !- July Ground Temperature
    18,                       !- August Ground Temperature
    18,                       !- September Ground Temperature
    18,                       !- October Ground Temperature
    18,                       !- November Ground Temperature
    18;                       !- December Ground Temperature

SCHEDULETYPELIMITS,
    Temperature,              !- Name
    -100,                     !- Lower Limit Value
    100,                      !- Upper Limit Value
    CONTINUOUS,               !- Numeric Type
    Temperature;              !- Unit Type

SCHEDULETYPELIMITS,
    Fraction,                 !- Name
    0,                        !- Lower Limit Value
    1,                        !- Upper Limit Value
    CONTINUOUS,               !- Numeric Type
    Dimensionless;            !- Unit Type

SCHEDULETYPELIMITS,
    Control Type,             !- Name
    0,                        !- Lower Limit Value
    4,                        !- Upper Limit Value
    DISCRETE,                 !- Numeric Type
    Dimensionless;            !- Unit Type

SCHEDULE:COMPACT,
    HeatingSetpoint_Zone_0599100000322226,    !- Name
    Temperature,              !- Schedule Type Limits Name
    Through: 12/31,           !- Field 1
    For: AllDays,             !- Field 2
    Until: 24:00,             !- Field 3
    21.0;                     !- Field 4

SCHEDULE:COMPACT,
    CoolingSetpoint_Zone_0599100000322226,    !- Name
    Temperature,              !- Schedule Type Limits Name
    Through: 12/31,           !- Field 1
    For: AllDays,             !- Field 2
    Until: 24:00,             !- Field 3
    24.0;                     !- Field 4

SCHEDULE:COMPACT,
    DualSetpointControlType,    !- Name
    Control Type,             !- Schedule Type Limits Name
    Through: 12/31,           !- Field 1
    For: AllDays,             !- Field 2
    Until: 24:00,             !- Field 3
    4;                        !- Field 4

SCHEDULE:COMPACT,
    AlwaysOn,                 !- Name
    Fraction,                 !- Schedule Type Limits Name
    Through: 12/31,           !- Field 1
    For: AllDays,             !- Field 2
    Until: 24:00,             !- Field 3
    1.0;                      !- Field 4

MATERIAL,
    G.D.1965,                 !- Name
    MediumSmooth,             !- Roughness
    0.15,                     !- Thickness
    1,                        !- Conductivity
    540,                      !- Density
    1210,                     !- Specific Heat
    0.9,                      !- Thermal Absorptance
    0.7,                      !- Solar Absorptance
    0.7;                      !- Visible Absorptance

MATERIAL,
    F.D.1965,                 !- Name
    Rough,                    !- Roughness
    0.3,                      !- Thickness
    0.8571428571428572,       !- Conductivity
    1920,                     !- Density
    840,                      !- Specific Heat
    0.9,                      !- Thermal Absorptance
    0.7,                      !- Solar Absorptance
    0.7;                      !- Visible Absorptance

MATERIAL,
    R.D.1965,                 !- Name
    MediumRough,              !- Roughness
    0.2,                      !- Thickness
    0.08,                     !- Conductivity
    1500,                     !- Density
    1000,                     !- Specific Heat
    0.9,                      !- Thermal Absorptance
    0.7,                      !- Solar Absorptance
    0.7;                      !- Visible Absorptance

WINDOWMATERIAL:SIMPLEGLAZINGSYSTEM,
    W.D.1965,                 !- Name
    1.8,                      !- UFactor
    0.4,                      !- Solar Heat Gain Coefficient
    0.6;                      !- Visible Transmittance

CONSTRUCTION,
    C_G,                      !- Name
    G.D.1965;                 !- Outside Layer

CONSTRUCTION,
    C_F,                      !- Name
    F.D.1965;                 !- Outside Layer

CONSTRUCTION,
    C_R,                      !- Name
    R.D.1965;                 !- Outside Layer

GlobalGeometryRules,
    UpperLeftCorner,          !- Starting Vertex Position
    Counterclockwise,         !- Vertex Entry Direction
    World,                    !- Coordinate System
    World,                    !- Daylighting Reference Point Coordinate System
    Relative;                 !- Rectangular Surface Coordinate System

ZONE,
    Zone_0599100000322226,    !- Name
    0,                        !- Direction of Relative North
    0,                        !- X Origin
    0,                        !- Y Origin
    0,                        !- Z Origin
    1,                        !- Type
    1,                        !- Multiplier
    Autocalculate,            !- Ceiling Height
    Autocalculate,            !- Volume
    autocalculate,            !- Floor Area
    ,                         !- Zone Inside Convection Algorithm
    ,                         !- Zone Outside Convection Algorithm
    Yes;                      !- Part of Total Floor Area

BUILDINGSURFACE:DETAILED,
    G_0,                      !- Name
    Floor,                    !- Surface Type
    C_G,                      !- Construction Name
    Zone_0599100000322226,    !- Zone Name
    ,                         !- Space Name
    Ground,                   !- Outside Boundary Condition
    ,                         !- Outside Boundary Condition Object
    SunExposed,               !- Sun Exposure
    WindExposed,              !- Wind Exposure
    0.5,                      !- View Factor to Ground
    24,                       !- Number of Vertices
    5.08,                     !- Vertex 1 Xcoordinate
    10.635,                   !- Vertex 1 Ycoordinate
    0,                        !- Vertex 1 Zcoordinate
    5.484,                    !- Vertex 2 Xcoordinate
    10.551,                   !- Vertex 2 Ycoordinate
    0,                        !- Vertex 2 Zcoordinate
    7.639,                    !- Vertex 3 Xcoordinate
    9.9,                      !- Vertex 3 Ycoordinate
    0,                        !- Vertex 3 Zcoordinate
    7.721,                    !- Vertex 4 Xcoordinate
    10.09,                    !- Vertex 4 Ycoordinate
    0,                        !- Vertex 4 Zcoordinate
    7.906,                    !- Vertex 5 Xcoordinate
    10.051,                   !- Vertex 5 Ycoordinate
    0,                        !- Vertex 5 Zcoordinate
    8.886,                    !- Vertex 6 Xcoordinate
    12.326,                   !- Vertex 6 Ycoordinate
    0,                        !- Vertex 6 Zcoordinate
    8.825,                    !- Vertex 7 Xcoordinate
    12.647,                   !- Vertex 7 Ycoordinate
    0,                        !- Vertex 7 Zcoordinate
    15.09,                    !- Vertex 8 Xcoordinate
    27.169,                   !- Vertex 8 Ycoordinate
    0,                        !- Vertex 8 Zcoordinate
    19.391,                   !- Vertex 9 Xcoordinate
    25.684,                   !- Vertex 9 Ycoordinate
    0,                        !- Vertex 9 Zcoordinate
    19.346,                   !- Vertex 10 Xcoordinate
    25.577,                   !- Vertex 10 Ycoordinate
    0,                        !- Vertex 10 Zcoordinate
    22.971,                   !- Vertex 11 Xcoordinate
    24.448,                   !- Vertex 11 Ycoordinate
    0,                        !- Vertex 11 Zcoordinate
    23.72,                    !- Vertex 12 Xcoordinate
    24.19,                    !- Vertex 12 Ycoordinate
    0,                        !- Vertex 12 Zcoordinate
    13.34,                    !- Vertex 13 Xcoordinate
    0,                        !- Vertex 13 Ycoordinate
    0,                        !- Vertex 13 Zcoordinate
    8.809,                    !- Vertex 14 Xcoordinate
    1.565,                    !- Vertex 14 Ycoordinate
    0,                        !- Vertex 14 Zcoordinate
    8.924,                    !- Vertex 15 Xcoordinate
    1.723,                    !- Vertex 15 Ycoordinate
    0,                        !- Vertex 15 Zcoordinate
    8.208,                    !- Vertex 16 Xcoordinate
    1.773,                    !- Vertex 16 Ycoordinate
    0,                        !- Vertex 16 Zcoordinate
    5.845,                    !- Vertex 17 Xcoordinate
    2.59,                     !- Vertex 17 Ycoordinate
    0,                        !- Vertex 17 Zcoordinate
    5.886,                    !- Vertex 18 Xcoordinate
    2.767,                    !- Vertex 18 Ycoordinate
    0,                        !- Vertex 18 Zcoordinate
    5.247,                    !- Vertex 19 Xcoordinate
    2.797,                    !- Vertex 19 Ycoordinate
    0,                        !- Vertex 19 Zcoordinate
    2.259,                    !- Vertex 20 Xcoordinate
    3.829,                    !- Vertex 20 Ycoordinate
    0,                        !- Vertex 20 Zcoordinate
    2.34,                     !- Vertex 21 Xcoordinate
    3.989,                    !- Vertex 21 Ycoordinate
    0,                        !- Vertex 21 Zcoordinate
    0,                        !- Vertex 22 Xcoordinate
    4.959,                    !- Vertex 22 Ycoordinate
    0,                        !- Vertex 22 Zcoordinate
    1.829,                    !- Vertex 23 Xcoordinate
    9.65,                     !- Vertex 23 Ycoordinate
    0,                        !- Vertex 23 Zcoordinate
    4.28,                     !- Vertex 24 Xcoordinate
    8.63,                     !- Vertex 24 Ycoordinate
    0;                        !- Vertex 24 Zcoordinate

BUILDINGSURFACE:DETAILED,
    F_1,                      !- Name
    Wall,                     !- Surface Type
    C_F,                      !- Construction Name
    Zone_0599100000322226,    !- Zone Name
    ,                         !- Space Name
    Outdoors,                 !- Outside Boundary Condition
    ,                         !- Outside Boundary Condition Object
    SunExposed,               !- Sun Exposure
    WindExposed,              !- Wind Exposure
    0.5,                      !- View Factor to Ground
    4,                        !- Number of Vertices
    15.09,                    !- Vertex 1 Xcoordinate
    27.169,                   !- Vertex 1 Ycoordinate
    6.993,                    !- Vertex 1 Zcoordinate
    15.09,                    !- Vertex 2 Xcoordinate
    27.169,                   !- Vertex 2 Ycoordinate
    0,                        !- Vertex 2 Zcoordinate
    8.825,                    !- Vertex 3 Xcoordinate
    12.647,                   !- Vertex 3 Ycoordinate
    0,                        !- Vertex 3 Zcoordinate
    8.825,                    !- Vertex 4 Xcoordinate
    12.647,                   !- Vertex 4 Ycoordinate
    6.993;                    !- Vertex 4 Zcoordinate

BUILDINGSURFACE:DETAILED,
    F_2,                      !- Name
    Wall,                     !- Surface Type
    C_F,                      !- Construction Name
    Zone_0599100000322226,    !- Zone Name
    ,                         !- Space Name
    Outdoors,                 !- Outside Boundary Condition
    ,                         !- Outside Boundary Condition Object
    SunExposed,               !- Sun Exposure
    WindExposed,              !- Wind Exposure
    0.5,                      !- View Factor to Ground
    4,                        !- Number of Vertices
    5.247,                    !- Vertex 1 Xcoordinate
    2.797,                    !- Vertex 1 Ycoordinate
    6.993,                    !- Vertex 1 Zcoordinate
    5.247,                    !- Vertex 2 Xcoordinate
    2.797,                    !- Vertex 2 Ycoordinate
    0,                        !- Vertex 2 Zcoordinate
    5.886,                    !- Vertex 3 Xcoordinate
    2.767,                    !- Vertex 3 Ycoordinate
    0,                        !- Vertex 3 Zcoordinate
    5.886,                    !- Vertex 4 Xcoordinate
    2.767,                    !- Vertex 4 Ycoordinate
    6.993;                    !- Vertex 4 Zcoordinate

BUILDINGSURFACE:DETAILED,
    F_3,                      !- Name
    Wall,                     !- Surface Type
    C_F,                      !- Construction Name
    Zone_0599100000322226,    !- Zone Name
    ,                         !- Space Name
    Outdoors,                 !- Outside Boundary Condition
    ,                         !- Outside Boundary Condition Object
    SunExposed,               !- Sun Exposure
    WindExposed,              !- Wind Exposure
    0.5,                      !- View Factor to Ground
    4,                        !- Number of Vertices
    5.886,                    !- Vertex 1 Xcoordinate
    2.767,                    !- Vertex 1 Ycoordinate
    6.993,                    !- Vertex 1 Zcoordinate
    5.886,                    !- Vertex 2 Xcoordinate
    2.767,                    !- Vertex 2 Ycoordinate
    0,                        !- Vertex 2 Zcoordinate
    5.845,                    !- Vertex 3 Xcoordinate
    2.59,                     !- Vertex 3 Ycoordinate
    0,                        !- Vertex 3 Zcoordinate
    5.845,                    !- Vertex 4 Xcoordinate
    2.59,                     !- Vertex 4 Ycoordinate
    6.993;                    !- Vertex 4 Zcoordinate

BUILDINGSURFACE:DETAILED,
    F_4,                      !- Name
    Wall,                     !- Surface Type
    C_F,                      !- Construction Name
    Zone_0599100000322226,    !- Zone Name
    ,                         !- Space Name
    Outdoors,                 !- Outside Boundary Condition
    ,                         !- Outside Boundary Condition Object
    SunExposed,               !- Sun Exposure
    WindExposed,              !- Wind Exposure
    0.5,                      !- View Factor to Ground
    4,                        !- Number of Vertices
    8.809,                    !- Vertex 1 Xcoordinate
    1.565,                    !- Vertex 1 Ycoordinate
    6.993,                    !- Vertex 1 Zcoordinate
    8.809,                    !- Vertex 2 Xcoordinate
    1.565,                    !- Vertex 2 Ycoordinate
    0,                        !- Vertex 2 Zcoordinate
    13.34,                    !- Vertex 3 Xcoordinate
    0,                        !- Vertex 3 Ycoordinate
    0,                        !- Vertex 3 Zcoordinate
    13.34,                    !- Vertex 4 Xcoordinate
    0,                        !- Vertex 4 Ycoordinate
    6.993;                    !- Vertex 4 Zcoordinate

BUILDINGSURFACE:DETAILED,
    F_5,                      !- Name
    Wall,                     !- Surface Type
    C_F,                      !- Construction Name
    Zone_0599100000322226,    !- Zone Name
    ,                         !- Space Name
    Outdoors,                 !- Outside Boundary Condition
    ,                         !- Outside Boundary Condition Object
    SunExposed,               !- Sun Exposure
    WindExposed,              !- Wind Exposure
    0.5,                      !- View Factor to Ground
    4,                        !- Number of Vertices
    4.28,                     !- Vertex 1 Xcoordinate
    8.63,                     !- Vertex 1 Ycoordinate
    6.993,                    !- Vertex 1 Zcoordinate
    4.28,                     !- Vertex 2 Xcoordinate
    8.63,                     !- Vertex 2 Ycoordinate
    0,                        !- Vertex 2 Zcoordinate
    1.829,                    !- Vertex 3 Xcoordinate
    9.65,                     !- Vertex 3 Ycoordinate
    0,                        !- Vertex 3 Zcoordinate
    1.829,                    !- Vertex 4 Xcoordinate
    9.65,                     !- Vertex 4 Ycoordinate
    6.993;                    !- Vertex 4 Zcoordinate

BUILDINGSURFACE:DETAILED,
    F_6,                      !- Name
    Wall,                     !- Surface Type
    C_F,                      !- Construction Name
    Zone_0599100000322226,    !- Zone Name
    ,                         !- Space Name
    Outdoors,                 !- Outside Boundary Condition
    ,                         !- Outside Boundary Condition Object
    SunExposed,               !- Sun Exposure
    WindExposed,              !- Wind Exposure
    0.5,                      !- View Factor to Ground
    4,                        !- Number of Vertices
    1.829,                    !- Vertex 1 Xcoordinate
    9.65,                     !- Vertex 1 Ycoordinate
    6.993,                    !- Vertex 1 Zcoordinate
    1.829,                    !- Vertex 2 Xcoordinate
    9.65,                     !- Vertex 2 Ycoordinate
    0,                        !- Vertex 2 Zcoordinate
    0,                        !- Vertex 3 Xcoordinate
    4.959,                    !- Vertex 3 Ycoordinate
    0,                        !- Vertex 3 Zcoordinate
    0,                        !- Vertex 4 Xcoordinate
    4.959,                    !- Vertex 4 Ycoordinate
    6.993;                    !- Vertex 4 Zcoordinate

BUILDINGSURFACE:DETAILED,
    F_7,                      !- Name
    Wall,                     !- Surface Type
    C_F,                      !- Construction Name
    Zone_0599100000322226,    !- Zone Name
    ,                         !- Space Name
    Outdoors,                 !- Outside Boundary Condition
    ,                         !- Outside Boundary Condition Object
    SunExposed,               !- Sun Exposure
    WindExposed,              !- Wind Exposure
    0.5,                      !- View Factor to Ground
    4,                        !- Number of Vertices
    13.34,                    !- Vertex 1 Xcoordinate
    0,                        !- Vertex 1 Ycoordinate
    6.993,                    !- Vertex 1 Zcoordinate
    13.34,                    !- Vertex 2 Xcoordinate
    0,                        !- Vertex 2 Ycoordinate
    0,                        !- Vertex 2 Zcoordinate
    23.72,                    !- Vertex 3 Xcoordinate
    24.19,                    !- Vertex 3 Ycoordinate
    0,                        !- Vertex 3 Zcoordinate
    23.72,                    !- Vertex 4 Xcoordinate
    24.19,                    !- Vertex 4 Ycoordinate
    6.993;                    !- Vertex 4 Zcoordinate

BUILDINGSURFACE:DETAILED,
    F_8,                      !- Name
    Wall,                     !- Surface Type
    C_F,                      !- Construction Name
    Zone_0599100000322226,    !- Zone Name
    ,                         !- Space Name
    Outdoors,                 !- Outside Boundary Condition
    ,                         !- Outside Boundary Condition Object
    SunExposed,               !- Sun Exposure
    WindExposed,              !- Wind Exposure
    0.5,                      !- View Factor to Ground
    4,                        !- Number of Vertices
    19.391,                   !- Vertex 1 Xcoordinate
    25.684,                   !- Vertex 1 Ycoordinate
    6.993,                    !- Vertex 1 Zcoordinate
    19.391,                   !- Vertex 2 Xcoordinate
    25.684,                   !- Vertex 2 Ycoordinate
    0,                        !- Vertex 2 Zcoordinate
    15.09,                    !- Vertex 3 Xcoordinate
    27.169,                   !- Vertex 3 Ycoordinate
    0,                        !- Vertex 3 Zcoordinate
    15.09,                    !- Vertex 4 Xcoordinate
    27.169,                   !- Vertex 4 Ycoordinate
    6.993;                    !- Vertex 4 Zcoordinate

BUILDINGSURFACE:DETAILED,
    F_9,                      !- Name
    Wall,                     !- Surface Type
    C_F,                      !- Construction Name
    Zone_0599100000322226,    !- Zone Name
    ,                         !- Space Name
    Outdoors,                 !- Outside Boundary Condition
    ,                         !- Outside Boundary Condition Object
    SunExposed,               !- Sun Exposure
    WindExposed,              !- Wind Exposure
    0.5,                      !- View Factor to Ground
    4,                        !- Number of Vertices
    7.721,                    !- Vertex 1 Xcoordinate
    10.09,                    !- Vertex 1 Ycoordinate
    6.993,                    !- Vertex 1 Zcoordinate
    7.721,                    !- Vertex 2 Xcoordinate
    10.09,                    !- Vertex 2 Ycoordinate
    0,                        !- Vertex 2 Zcoordinate
    7.639,                    !- Vertex 3 Xcoordinate
    9.9,                      !- Vertex 3 Ycoordinate
    0,                        !- Vertex 3 Zcoordinate
    7.639,                    !- Vertex 4 Xcoordinate
    9.9,                      !- Vertex 4 Ycoordinate
    6.993;                    !- Vertex 4 Zcoordinate

BUILDINGSURFACE:DETAILED,
    F_10,                     !- Name
    Wall,                     !- Surface Type
    C_F,                      !- Construction Name
    Zone_0599100000322226,    !- Zone Name
    ,                         !- Space Name
    Outdoors,                 !- Outside Boundary Condition
    ,                         !- Outside Boundary Condition Object
    SunExposed,               !- Sun Exposure
    WindExposed,              !- Wind Exposure
    0.5,                      !- View Factor to Ground
    4,                        !- Number of Vertices
    0,                        !- Vertex 1 Xcoordinate
    4.959,                    !- Vertex 1 Ycoordinate
    6.993,                    !- Vertex 1 Zcoordinate
    0,                        !- Vertex 2 Xcoordinate
    4.959,                    !- Vertex 2 Ycoordinate
    0,                        !- Vertex 2 Zcoordinate
    2.34,                     !- Vertex 3 Xcoordinate
    3.989,                    !- Vertex 3 Ycoordinate
    0,                        !- Vertex 3 Zcoordinate
    2.34,                     !- Vertex 4 Xcoordinate
    3.989,                    !- Vertex 4 Ycoordinate
    6.993;                    !- Vertex 4 Zcoordinate

BUILDINGSURFACE:DETAILED,
    F_11,                     !- Name
    Wall,                     !- Surface Type
    C_F,                      !- Construction Name
    Zone_0599100000322226,    !- Zone Name
    ,                         !- Space Name
    Outdoors,                 !- Outside Boundary Condition
    ,                         !- Outside Boundary Condition Object
    SunExposed,               !- Sun Exposure
    WindExposed,              !- Wind Exposure
    0.5,                      !- View Factor to Ground
    4,                        !- Number of Vertices
    2.34,                     !- Vertex 1 Xcoordinate
    3.989,                    !- Vertex 1 Ycoordinate
    6.993,                    !- Vertex 1 Zcoordinate
    2.34,                     !- Vertex 2 Xcoordinate
    3.989,                    !- Vertex 2 Ycoordinate
    0,                        !- Vertex 2 Zcoordinate
    2.259,                    !- Vertex 3 Xcoordinate
    3.829,                    !- Vertex 3 Ycoordinate
    0,                        !- Vertex 3 Zcoordinate
    2.259,                    !- Vertex 4 Xcoordinate
    3.829,                    !- Vertex 4 Ycoordinate
    6.993;                    !- Vertex 4 Zcoordinate

BUILDINGSURFACE:DETAILED,
    F_12,                     !- Name
    Wall,                     !- Surface Type
    C_F,                      !- Construction Name
    Zone_0599100000322226,    !- Zone Name
    ,                         !- Space Name
    Outdoors,                 !- Outside Boundary Condition
    ,                         !- Outside Boundary Condition Object
    SunExposed,               !- Sun Exposure
    WindExposed,              !- Wind Exposure
    0.5,                      !- View Factor to Ground
    4,                        !- Number of Vertices
    19.346,                   !- Vertex 1 Xcoordinate
    25.577,                   !- Vertex 1 Ycoordinate
    6.993,                    !- Vertex 1 Zcoordinate
    19.346,                   !- Vertex 2 Xcoordinate
    25.577,                   !- Vertex 2 Ycoordinate
    0,                        !- Vertex 2 Zcoordinate
    19.391,                   !- Vertex 3 Xcoordinate
    25.684,                   !- Vertex 3 Ycoordinate
    0,                        !- Vertex 3 Zcoordinate
    19.391,                   !- Vertex 4 Xcoordinate
    25.684,                   !- Vertex 4 Ycoordinate
    6.993;                    !- Vertex 4 Zcoordinate

BUILDINGSURFACE:DETAILED,
    F_13,                     !- Name
    Wall,                     !- Surface Type
    C_F,                      !- Construction Name
    Zone_0599100000322226,    !- Zone Name
    ,                         !- Space Name
    Outdoors,                 !- Outside Boundary Condition
    ,                         !- Outside Boundary Condition Object
    SunExposed,               !- Sun Exposure
    WindExposed,              !- Wind Exposure
    0.5,                      !- View Factor to Ground
    4,                        !- Number of Vertices
    22.971,                   !- Vertex 1 Xcoordinate
    24.448,                   !- Vertex 1 Ycoordinate
    6.993,                    !- Vertex 1 Zcoordinate
    22.971,                   !- Vertex 2 Xcoordinate
    24.448,                   !- Vertex 2 Ycoordinate
    0,                        !- Vertex 2 Zcoordinate
    19.346,                   !- Vertex 3 Xcoordinate
    25.577,                   !- Vertex 3 Ycoordinate
    0,                        !- Vertex 3 Zcoordinate
    19.346,                   !- Vertex 4 Xcoordinate
    25.577,                   !- Vertex 4 Ycoordinate
    6.993;                    !- Vertex 4 Zcoordinate

BUILDINGSURFACE:DETAILED,
    F_14,                     !- Name
    Wall,                     !- Surface Type
    C_F,                      !- Construction Name
    Zone_0599100000322226,    !- Zone Name
    ,                         !- Space Name
    Outdoors,                 !- Outside Boundary Condition
    ,                         !- Outside Boundary Condition Object
    SunExposed,               !- Sun Exposure
    WindExposed,              !- Wind Exposure
    0.5,                      !- View Factor to Ground
    4,                        !- Number of Vertices
    23.72,                    !- Vertex 1 Xcoordinate
    24.19,                    !- Vertex 1 Ycoordinate
    6.993,                    !- Vertex 1 Zcoordinate
    23.72,                    !- Vertex 2 Xcoordinate
    24.19,                    !- Vertex 2 Ycoordinate
    0,                        !- Vertex 2 Zcoordinate
    22.971,                   !- Vertex 3 Xcoordinate
    24.448,                   !- Vertex 3 Ycoordinate
    0,                        !- Vertex 3 Zcoordinate
    22.971,                   !- Vertex 4 Xcoordinate
    24.448,                   !- Vertex 4 Ycoordinate
    6.993;                    !- Vertex 4 Zcoordinate

BUILDINGSURFACE:DETAILED,
    F_15,                     !- Name
    Wall,                     !- Surface Type
    C_F,                      !- Construction Name
    Zone_0599100000322226,    !- Zone Name
    ,                         !- Space Name
    Outdoors,                 !- Outside Boundary Condition
    ,                         !- Outside Boundary Condition Object
    SunExposed,               !- Sun Exposure
    WindExposed,              !- Wind Exposure
    0.5,                      !- View Factor to Ground