!- Windows Line endings 

Version,
    24.2;                     !- Version Identifier

SimulationControl,
    No,                       !- Do Zone Sizing Calculation
    No,                       !- Do System Sizing Calculation
    No,                       !- Do Plant Sizing Calculation
    No,                       !- Run Simulation for Sizing Periods
    Yes,                      !- Run Simulation for Weather File Run Periods
    No,                       !- Do HVAC Sizing Simulation for Sizing Periods
    1;                        !- Maximum Number of HVAC Sizing Simulation Passes

BUILDING,
    Pand.0599100000362945,    !- Name
    0,                        !- North Axis
    City,                     !- Terrain
    0.04,                     !- Loads Convergence Tolerance Value
    0.4,                      !- Temperature Convergence Tolerance Value
    FullExterior,             !- Solar Distribution
    25,                       !- Maximum Number of Warmup Days
    1;                        !- Minimum Number of Warmup Days

Timestep,
    6;                        !- Number of Timesteps per Hour

Site:Location,
    Rotterdam.The.Hague.AP_ZH_NLD Design_Conditions,    !- Name
    51.96,                    !- Latitude
    4.45,                     !- Longitude
    1,                        !- Time Zone
    -4.5;                     !- Elevation

RunPeriod,
    Run Period 1,             !- Name
    1,                        !- Begin Month
    1,                        !- Begin Day of Month
    ,                         !- Begin Year
    12,                       !- End Month
    31,                       !- End Day of Month
    ,                         !- End Year
    ,                         !- Day of Week for Start Day
    Yes,                      !- Use Weather File Holidays and Special Days
    Yes,                      !- Use Weather File Daylight Saving Period
    No,                       !- Apply Weekend Holiday Rule
    Yes,                      !- Use Weather File Rain Indicators
    Yes,                      !- Use Weather File Snow Indicators
    No,                       !- Treat Weather as Actual
    Hour24;                   !- First Hour Interpolation Starting Values

RunPeriodControl:DaylightSavingTime,
    Last Sunday in March,     !- Start Date
    Last Sunday in October;    !- End Date

SITE:GROUNDTEMPERATURE:BUILDINGSURFACE,
    18,                       !- January Ground Temperature
    18,                       !- February Ground Temperature
    18,                       !- March Ground Temperature
    18,                       !- April Ground Temperature
    18,                       !- May Ground Temperature
    18,                       !- June Ground Temperature
    18,                       !- July Ground Temperature
    18,                       !- August Ground Temperature
    18,                       !- September Ground Temperature
    18,                       !- October Ground Temperature
    18,                       !- November Ground Temperature
    18;                       !- December Ground Temperature

SCHEDULETYPELIMITS,
    Temperature,              !- Name
    -100,                     !- Lower Limit Value
    100,                      !- Upper Limit Value
    CONTINUOUS,               !- Numeric Type
    Temperature;              !- Unit Type

SCHEDULETYPELIMITS,
    Fraction,                 !- Name
    0,                        !- Lower Limit Value
    1,                        !- Upper Limit Value
    CONTINUOUS,               !- Numeric Type
    Dimensionless;            !- Unit Type

SCHEDULETYPELIMITS,
    Control Type,             !- Name
    0,                        !- Lower Limit Value
    4,                        !- Upper Limit Value
    DISCRETE,                 !- Numeric Type
    Dimensionless;            !- Unit Type

SCHEDULE:COMPACT,
    HeatingSetpoint_Zone_0599100000362945,    !- Name
    Temperature,              !- Schedule Type Limits Name
    Through: 12/31,           !- Field 1
    For: AllDays,             !- Field 2
    Until: 24:00,             !- Field 3
    21.0;                     !- Field 4

SCHEDULE:COMPACT,
    CoolingSetpoint_Zone_0599100000362945,    !- Name
    Temperature,              !- Schedule Type Limits Name
    Through: 12/31,           !- Field 1
    For: AllDays,             !- Field 2
    Until: 24:00,             !- Field 3
    24.0;                     !- Field 4

SCHEDULE:COMPACT,
    DualSetpointControlType,    !- Name
    Control Type,             !- Schedule Type Limits Name
    Through: 12/31,           !- Field 1
    For: AllDays,             !- Field 2
    Until: 24:00,             !- Field 3
    4;                        !- Field 4

SCHEDULE:COMPACT,
    AlwaysOn,                 !- Name
    Fraction,                 !- Schedule Type Limits Name
    Through: 12/31,           !- Field 1
    For: AllDays,             !- Field 2
    Until: 24:00,             !- Field 3
    1.0;                      !- Field 4

MATERIAL,
    G.D.1992-2005,            !- Name
    MediumSmooth,             !- Roughness
    0.15,                     !- Thickness
    0.06,                     !- Conductivity
    540,                      !- Density
    1210,                     !- Specific Heat
    0.9,                      !- Thermal Absorptance
    0.7,                      !- Solar Absorptance
    0.7;                      !- Visible Absorptance

MATERIAL,
    F.D.1992-2005,            !- Name
    Rough,                    !- Roughness
    0.3,                      !- Thickness
    0.12,                     !- Conductivity
    1920,                     !- Density
    840,                      !- Specific Heat
    0.9,                      !- Thermal Absorptance
    0.7,                      !- Solar Absorptance
    0.7;                      !- Visible Absorptance

MATERIAL,
    R.D.1992-2005,            !- Name
    MediumRough,              !- Roughness
    0.2,                      !- Thickness
    0.08,                     !- Conductivity
    1500,                     !- Density
    1000,                     !- Specific Heat
    0.9,                      !- Thermal Absorptance
    0.7,                      !- Solar Absorptance
    0.7;                      !- Visible Absorptance

WINDOWMATERIAL:SIMPLEGLAZINGSYSTEM,
    W.D.1992-2005,            !- Name
    2.9,                      !- UFactor
    0.6,                      !- Solar Heat Gain Coefficient
    0.6;                      !- Visible Transmittance

CONSTRUCTION,
    C_G,                      !- Name
    G.D.1992-2005;            !- Outside Layer

CONSTRUCTION,
    C_F,                      !- Name
    F.D.1992-2005;            !- Outside Layer

CONSTRUCTION,
    C_R,                      !- Name
    R.D.1992-2005;            !- Outside Layer

GlobalGeometryRules,
    UpperLeftCorner,          !- Starting Vertex Position
    Counterclockwise,         !- Vertex Entry Direction
    World,                    !- Coordinate System
    World,                    !- Daylighting Reference Point Coordinate System
    Relative;                 !- Rectangular Surface Coordinate System

ZONE,
    Zone_0599100000362945,    !- Name
    0,                        !- Direction of Relative North
    0,                        !- X Origin
    0,                        !- Y Origin
    0,                        !- Z Origin
    1,                        !- Type
    1,                        !- Multiplier
    Autocalculate,            !- Ceiling Height
    Autocalculate,            !- Volume
    autocalculate,            !- Floor Area
    ,                         !- Zone Inside Convection Algorithm
    ,                         !- Zone Outside Convection Algorithm
    Yes;                      !- Part of Total Floor Area

BUILDINGSURFACE:DETAILED,
    G_0,                      !- Name
    Floor,                    !- Surface Type
    C_G,                      !- Construction Name
    Zone_0599100000362945,    !- Zone Name
    ,                         !- Space Name
    Ground,                   !- Outside Boundary Condition
    ,                         !- Outside Boundary Condition Object
    SunExposed,               !- Sun Exposure
    WindExposed,              !- Wind Exposure
    0.5,                      !- View Factor to Ground
    35,                       !- Number of Vertices
    8.232,                    !- Vertex 1 Xcoordinate
    14.59,                    !- Vertex 1 Ycoordinate
    0,                        !- Vertex 1 Zcoordinate
    8.267,                    !- Vertex 2 Xcoordinate
    14.429,                   !- Vertex 2 Ycoordinate
    0,                        !- Vertex 2 Zcoordinate
    8.276,                    !- Vertex 3 Xcoordinate
    14.263,                   !- Vertex 3 Ycoordinate
    0,                        !- Vertex 3 Zcoordinate
    8.262,                    !- Vertex 4 Xcoordinate
    14.098,                   !- Vertex 4 Ycoordinate
    0,                        !- Vertex 4 Zcoordinate
    8.225,                    !- Vertex 5 Xcoordinate
    13.935,                   !- Vertex 5 Ycoordinate
    0,                        !- Vertex 5 Zcoordinate
    8.162,                    !- Vertex 6 Xcoordinate
    13.782,                   !- Vertex 6 Ycoordinate
    0,                        !- Vertex 6 Zcoordinate
    9.748,                    !- Vertex 7 Xcoordinate
    15.401,                   !- Vertex 7 Ycoordinate
    0,                        !- Vertex 7 Zcoordinate
    10.147,                   !- Vertex 8 Xcoordinate
    15.703,                   !- Vertex 8 Ycoordinate
    0,                        !- Vertex 8 Zcoordinate
    17.149,                   !- Vertex 9 Xcoordinate
    8.849,                    !- Vertex 9 Ycoordinate
    0,                        !- Vertex 9 Zcoordinate
    14.775,                   !- Vertex 10 Xcoordinate
    6.404,                    !- Vertex 10 Ycoordinate
    0,                        !- Vertex 10 Zcoordinate
    14.375,                   !- Vertex 11 Xcoordinate
    6.791,                    !- Vertex 11 Ycoordinate
    0,                        !- Vertex 11 Zcoordinate
    6.687,                    !- Vertex 12 Xcoordinate
    0.643,                    !- Vertex 12 Ycoordinate
    0,                        !- Vertex 12 Zcoordinate
    6.94,                     !- Vertex 13 Xcoordinate
    0.176,                    !- Vertex 13 Ycoordinate
    0,                        !- Vertex 13 Zcoordinate
    6.616,                    !- Vertex 14 Xcoordinate
    0,                        !- Vertex 14 Ycoordinate
    0,                        !- Vertex 14 Zcoordinate
    0.093,                    !- Vertex 15 Xcoordinate
    11.958,                   !- Vertex 15 Ycoordinate
    0,                        !- Vertex 15 Zcoordinate
    0.922,                    !- Vertex 16 Xcoordinate
    12.615,                   !- Vertex 16 Ycoordinate
    0,                        !- Vertex 16 Zcoordinate
    0,                        !- Vertex 17 Xcoordinate
    13.793,                   !- Vertex 17 Ycoordinate
    0,                        !- Vertex 17 Zcoordinate
    3.88,                     !- Vertex 18 Xcoordinate
    16.87,                    !- Vertex 18 Ycoordinate
    0,                        !- Vertex 18 Zcoordinate
    4.81,                     !- Vertex 19 Xcoordinate
    15.697,                   !- Vertex 19 Ycoordinate
    0,                        !- Vertex 19 Zcoordinate
    5.123,                    !- Vertex 20 Xcoordinate
    15.946,                   !- Vertex 20 Ycoordinate
    0,                        !- Vertex 20 Zcoordinate
    4.842,                    !- Vertex 21 Xcoordinate
    16.242,                   !- Vertex 21 Ycoordinate
    0,                        !- Vertex 21 Zcoordinate
    5.12,                     !- Vertex 22 Xcoordinate
    16.535,                   !- Vertex 22 Ycoordinate
    0,                        !- Vertex 22 Zcoordinate
    6.485,                    !- Vertex 23 Xcoordinate
    15.186,                   !- Vertex 23 Ycoordinate
    0,                        !- Vertex 23 Zcoordinate
    6.627,                    !- Vertex 24 Xcoordinate
    15.274,                   !- Vertex 24 Ycoordinate
    0,                        !- Vertex 24 Zcoordinate
    6.778,                    !- Vertex 25 Xcoordinate
    15.34,                    !- Vertex 25 Ycoordinate
    0,                        !- Vertex 25 Zcoordinate
    6.939,                    !- Vertex 26 Xcoordinate
    15.383,                   !- Vertex 26 Ycoordinate
    0,                        !- Vertex 26 Zcoordinate
    7.105,                    !- Vertex 27 Xcoordinate
    15.403,                   !- Vertex 27 Ycoordinate
    0,                        !- Vertex 27 Zcoordinate
    7.271,                    !- Vertex 28 Xcoordinate
    15.396,                   !- Vertex 28 Ycoordinate
    0,                        !- Vertex 28 Zcoordinate
    7.434,                    !- Vertex 29 Xcoordinate
    15.366,                   !- Vertex 29 Ycoordinate
    0,                        !- Vertex 29 Zcoordinate
    7.592,                    !- Vertex 30 Xcoordinate
    15.313,                   !- Vertex 30 Ycoordinate
    0,                        !- Vertex 30 Zcoordinate
    7.739,                    !- Vertex 31 Xcoordinate
    15.238,                   !- Vertex 31 Ycoordinate
    0,                        !- Vertex 31 Zcoordinate
    7.873,                    !- Vertex 32 Xcoordinate
    15.14,                    !- Vertex 32 Ycoordinate
    0,                        !- Vertex 32 Zcoordinate
    7.993,                    !- Vertex 33 Xcoordinate
    15.024,                   !- Vertex 33 Ycoordinate
    0,                        !- Vertex 33 Zcoordinate
    8.093,                    !- Vertex 34 Xcoordinate
    14.893,                   !- Vertex 34 Ycoordinate
    0,                        !- Vertex 34 Zcoordinate
    8.174,                    !- Vertex 35 Xcoordinate
    14.746,                   !- Vertex 35 Ycoordinate
    0;                        !- Vertex 35 Zcoordinate

BUILDINGSURFACE:DETAILED,
    F_1,                      !- Name
    Wall,                     !- Surface Type
    C_F,                      !- Construction Name
    Zone_0599100000362945,    !- Zone Name
    ,                         !- Space Name
    Outdoors,                 !- Outside Boundary Condition
    ,                         !- Outside Boundary Condition Object
    SunExposed,               !- Sun Exposure
    WindExposed,              !- Wind Exposure
    0.5,                      !- View Factor to Ground
    4,                        !- Number of Vertices
    8.225,                    !- Vertex 1 Xcoordinate
    13.935,                   !- Vertex 1 Ycoordinate
    8.764,                    !- Vertex 1 Zcoordinate
    8.225,                    !- Vertex 2 Xcoordinate
    13.935,                   !- Vertex 2 Ycoordinate
    0,                        !- Vertex 2 Zcoordinate
    8.262,                    !- Vertex 3 Xcoordinate
    14.098,                   !- Vertex 3 Ycoordinate
    0,                        !- Vertex 3 Zcoordinate
    8.262,                    !- Vertex 4 Xcoordinate
    14.098,                   !- Vertex 4 Ycoordinate
    8.764;                    !- Vertex 4 Zcoordinate

BUILDINGSURFACE:DETAILED,
    F_2,                      !- Name
    Wall,                     !- Surface Type
    C_F,                      !- Construction Name
    Zone_0599100000362945,    !- Zone Name
    ,                         !- Space Name
    Outdoors,                 !- Outside Boundary Condition
    ,                         !- Outside Boundary Condition Object
    SunExposed,               !- Sun Exposure
    WindExposed,              !- Wind Exposure
    0.5,                      !- View Factor to Ground
    4,                        !- Number of Vertices
    8.162,                    !- Vertex 1 Xcoordinate
    13.782,                   !- Vertex 1 Ycoordinate
    8.764,                    !- Vertex 1 Zcoordinate
    8.162,                    !- Vertex 2 Xcoordinate
    13.782,                   !- Vertex 2 Ycoordinate
    0,                        !- Vertex 2 Zcoordinate
    8.225,                    !- Vertex 3 Xcoordinate
    13.935,                   !- Vertex 3 Ycoordinate
    0,                        !- Vertex 3 Zcoordinate
    8.225,                    !- Vertex 4 Xcoordinate
    13.935,                   !- Vertex 4 Ycoordinate
    8.764;                    !- Vertex 4 Zcoordinate

BUILDINGSURFACE:DETAILED,
    F_3,                      !- Name
    Wall,                     !- Surface Type
    C_F,                      !- Construction Name
    Zone_0599100000362945,    !- Zone Name
    ,                         !- Space Name
    Outdoors,                 !- Outside Boundary Condition
    ,                         !- Outside Boundary Condition Object
    SunExposed,               !- Sun Exposure
    WindExposed,              !- Wind Exposure
    0.5,                      !- View Factor to Ground
    4,                        !- Number of Vertices
    8.267,                    !- Vertex 1 Xcoordinate
    14.429,                   !- Vertex 1 Ycoordinate
    8.764,                    !- Vertex 1 Zcoordinate
    8.267,                    !- Vertex 2 Xcoordinate
    14.429,                   !- Vertex 2 Ycoordinate
    0,                        !- Vertex 2 Zcoordinate
    8.232,                    !- Vertex 3 Xcoordinate
    14.59,                    !- Vertex 3 Ycoordinate
    0,                        !- Vertex 3 Zcoordinate
    8.232,                    !- Vertex 4 Xcoordinate
    14.59,                    !- Vertex 4 Ycoordinate
    8.764;                    !- Vertex 4 Zcoordinate

BUILDINGSURFACE:DETAILED,
    F_4,                      !- Name
    Wall,                     !- Surface Type
    C_F,                      !- Construction Name
    Zone_0599100000362945,    !- Zone Name
    ,                         !- Space Name
    Outdoors,                 !- Outside Boundary Condition
    ,                         !- Outside Boundary Condition Object
    SunExposed,               !- Sun Exposure
    WindExposed,              !- Wind Exposure
    0.5,                      !- View Factor to Ground
    4,                        !- Number of Vertices
    8.262,                    !- Vertex 1 Xcoordinate
    14.098,                   !- Vertex 1 Ycoordinate
    8.764,                    !- Vertex 1 Zcoordinate
    8.262,                    !- Vertex 2 Xcoordinate
    14.098,                   !- Vertex 2 Ycoordinate
    0,                        !- Vertex 2 Zcoordinate
    8.276,                    !- Vertex 3 Xcoordinate
    14.263,                   !- Vertex 3 Ycoordinate
    0,                        !- Vertex 3 Zcoordinate
    8.276,                    !- Vertex 4 Xcoordinate
    14.263,                   !- Vertex 4 Ycoordinate
    8.764;                    !- Vertex 4 Zcoordinate

BUILDINGSURFACE:DETAILED,
    F_5,                      !- Name
    Wall,                     !- Surface Type
    C_F,                      !- Construction Name
    Zone_0599100000362945,    !- Zone Name
    ,                         !- Space Name
    Outdoors,                 !- Outside Boundary Condition
    ,                         !- Outside Boundary Condition Object
    SunExposed,               !- Sun Exposure
    WindExposed,              !- Wind Exposure
    0.5,                      !- View Factor to Ground
    4,                        !- Number of Vertices
    8.276,                    !- Vertex 1 Xcoordinate
    14.263,                   !- Vertex 1 Ycoordinate
    8.764,                    !- Vertex 1 Zcoordinate
    8.276,                    !- Vertex 2 Xcoordinate
    14.263,                   !- Vertex 2 Ycoordinate
    0,                        !- Vertex 2 Zcoordinate
    8.267,                    !- Vertex 3 Xcoordinate
    14.429,                   !- Vertex 3 Ycoordinate
    0,                        !- Vertex 3 Zcoordinate
    8.267,                    !- Vertex 4 Xcoordinate
    14.429,                   !- Vertex 4 Ycoordinate
    8.764;                    !- Vertex 4 Zcoordinate

BUILDINGSURFACE:DETAILED,
    F_6,                      !- Name
    Wall,                     !- Surface Type
    C_F,                      !- Construction Name
    Zone_0599100000362945,    !- Zone Name
    ,                         !- Space Name
    Outdoors,                 !- Outside Boundary Condition
    ,                         !- Outside Boundary Condition Object
    SunExposed,               !- Sun Exposure
    WindExposed,              !- Wind Exposure
    0.5,                      !- View Factor to Ground
    4,                        !- Number of Vertices
    8.093,                    !- Vertex 1 Xcoordinate
    14.893,                   !- Vertex 1 Ycoordinate
    8.764,                    !- Vertex 1 Zcoordinate
    8.093,                    !- Vertex 2 Xcoordinate
    14.893,                   !- Vertex 2 Ycoordinate
    0,                        !- Vertex 2 Zcoordinate
    7.993,                    !- Vertex 3 Xcoordinate
    15.024,                   !- Vertex 3 Ycoordinate
    0,                        !- Vertex 3 Zcoordinate
    7.993,                    !- Vertex 4 Xcoordinate
    15.024,                   !- Vertex 4 Ycoordinate
    8.764;                    !- Vertex 4 Zcoordinate

BUILDINGSURFACE:DETAILED,
    F_7,                      !- Name
    Wall,                     !- Surface Type
    C_F,                      !- Construction Name
    Zone_0599100000362945,    !- Zone Name
    ,                         !- Space Name
    Outdoors,                 !- Outside Boundary Condition
    ,                         !- Outside Boundary Condition Object
    SunExposed,               !- Sun Exposure
    WindExposed,              !- Wind Exposure
    0.5,                      !- View Factor to Ground
    4,                        !- Number of Vertices
    7.993,                    !- Vertex 1 Xcoordinate
    15.024,                   !- Vertex 1 Ycoordinate
    8.764,                    !- Vertex 1 Zcoordinate
    7.993,                    !- Vertex 2 Xcoordinate
    15.024,                   !- Vertex 2 Ycoordinate
    0,                        !- Vertex 2 Zcoordinate
    7.873,                    !- Vertex 3 Xcoordinate
    15.14,                    !- Vertex 3 Ycoordinate
    0,                        !- Vertex 3 Zcoordinate
    7.873,                    !- Vertex 4 Xcoordinate
    15.14,                    !- Vertex 4 Ycoordinate
    8.764;                    !- Vertex 4 Zcoordinate

BUILDINGSURFACE:DETAILED,
    F_8,                      !- Name
    Wall,                     !- Surface Type
    C_F,                      !- Construction Name
    Zone_0599100000362945,    !- Zone Name
    ,                         !- Space Name
    Outdoors,                 !- Outside Boundary Condition
    ,                         !- Outside Boundary Condition Object
    SunExposed,               !- Sun Exposure
    WindExposed,              !- Wind Exposure
    0.5,                      !- View Factor to Ground
    4,                        !- Number of Vertices
    7.592,                    !- Vertex 1 Xcoordinate
    15.313,                   !- Vertex 1 Ycoordinate
    8.764,                    !- Vertex 1 Zcoordinate
    7.592,                    !- Vertex 2 Xcoordinate
    15.313,                   !- Vertex 2 Ycoordinate
    0,                        !- Vertex 2 Zcoordinate
    7.434,                    !- Vertex 3 Xcoordinate
    15.366,                   !- Vertex 3 Ycoordinate
    0,                        !- Vertex 3 Zcoordinate
    7.434,                    !- Vertex 4 Xcoordinate
    15.366,                   !- Vertex 4 Ycoordinate
    8.764;                    !- Vertex 4 Zcoordinate

BUILDINGSURFACE:DETAILED,
    F_9,                      !- Name
    Wall,                     !- Surface Type
    C_F,                      !- Construction Name
    Zone_0599100000362945,    !- Zone Name
    ,                         !- Space Name
    Outdoors,                 !- Outside Boundary Condition
    ,                         !- Outside Boundary Condition Object
    SunExposed,               !- Sun Exposure
    WindExposed,              !- Wind Exposure
    0.5,                      !- View Factor to Ground
    4,                        !- Number of Vertices
    7.739,                    !- Vertex 1 Xcoordinate
    15.238,                   !- Vertex 1 Ycoordinate
    8.764,                    !- Vertex 1 Zcoordinate
    7.739,                    !- Vertex 2 Xcoordinate
    15.238,                   !- Vertex 2 Ycoordinate
    0,                        !- Vertex 2 Zcoordinate
    7.592,                    !- Vertex 3 Xcoordinate
    15.313,                   !- Vertex 3 Ycoordinate
    0,                        !- Vertex 3 Zcoordinate
    7.592,                    !- Vertex 4 Xcoordinate
    15.313,                   !- Vertex 4 Ycoordinate
    8.764;                    !- Vertex 4 Zcoordinate

BUILDINGSURFACE:DETAILED,
    F_10,                     !- Name
    Wall,                     !- Surface Type
    C_F,                      !- Construction Name
    Zone_0599100000362945,    !- Zone Name
    ,                         !- Space Name
    Outdoors,                 !- Outside Boundary Condition
    ,                         !- Outside Boundary Condition Object
    SunExposed,               !- Sun Exposure
    WindExposed,              !- Wind Exposure
    0.5,                      !- View Factor to Ground
    4,                        !- Number of Vertices
    6.939,                    !- Vertex 1 Xcoordinate
    15.383,                   !- Vertex 1 Ycoordinate
    8.764,                    !- Vertex 1 Zcoordinate
    6.939,                    !- Vertex 2 Xcoordinate
    15.383,                   !- Vertex 2 Ycoordinate
    0,                        !- Vertex 2 Zcoordinate
    6.778,                    !- Vertex 3 Xcoordinate
    15.34,                    !- Vertex 3 Ycoordinate
    0,                        !- Vertex 3 Zcoordinate
    6.778,                    !- Vertex 4 Xcoordinate
    15.34,                    !- Vertex 4 Ycoordinate
    8.764;                    !- Vertex 4 Zcoordinate

BUILDINGSURFACE:DETAILED,
    F_11,                     !- Name
    Wall,                     !- Surface Type
    C_F,                      !- Construction Name
    Zone_0599100000362945,    !- Zone Name
    ,                         !- Space Name
    Outdoors,                 !- Outside Boundary Condition
    ,                         !- Outside Boundary Condition Object
    SunExposed,               !- Sun Exposure
    WindExposed,              !- Wind Exposure
    0.5,                      !- View Factor to Ground
    4,                        !- Number of Vertices
    6.778,                    !- Vertex 1 Xcoordinate
    15.34,                    !- Vertex 1 Ycoordinate
    8.764,                    !- Vertex 1 Zcoordinate
    6.778,                    !- Vertex 2 Xcoordinate
    15.34,                    !- Vertex 2 Ycoordinate
    0,                        !- Vertex 2 Zcoordinate
    6.627,                    !- Vertex 3 Xcoordinate
    15.274,                   !- Vertex 3 Ycoordinate
    0,                        !- Vertex 3 Zcoordinate
    6.627,                    !- Vertex 4 Xcoordinate
    15.274,                   !- Vertex 4 Ycoordinate
    8.764;                    !- Vertex 4 Zcoordinate

BUILDINGSURFACE:DETAILED,
    F_12,                     !- Name
    Wall,                     !- Surface Type
    C_F,                      !- Construction Name
    Zone_0599100000362945,    !- Zone Name
    ,                         !- Space Name
    Outdoors,                 !- Outside Boundary Condition
    ,                         !- Outside Boundary Condition Object
    SunExposed,               !- Sun Exposure
    WindExposed,              !- Wind Exposure
    0.5,                      !- View Factor to Ground
    4,                        !- Number of Vertices
    7.271,                    !- Vertex 1 Xcoordinate
    15.396,                   !- Vertex 1 Ycoordinate
    8.764,                    !- Vertex 1 Zcoordinate
    7.271,                    !- Vertex 2 Xcoordinate
    15.396,                   !- Vertex 2 Ycoordinate
    0,                        !- Vertex 2 Zcoordinate
    7.105,                    !- Vertex 3 Xcoordinate
    15.403,                   !- Vertex 3 Ycoordinate
    0,                        !- Vertex 3 Zcoordinate
    7.105,                    !- Vertex 4 Xcoordinate
    15.403,                   !- Vertex 4 Ycoordinate
    8.764;                    !- Vertex 4 Zcoordinate

BUILDINGSURFACE:DETAILED,
    F_13,                     !- Name
    Wall,                     !- Surface Type
    C_F,                      !- Construction Name
    Zone_0599100000362945,    !- Zone Name
    ,                         !- Space Name
    Outdoors,                 !- Outside Boundary Condition
    ,                         !- Outside Boundary Condition Object
    SunExposed,               !- Sun Exposure
    WindExposed,              !- Wind Exposure
    0.5,                      !- View Factor to Ground
    4,                        !- Number of Vertices
    7.105,                    !- Vertex 1 Xcoordinate
    15.403,                   !- Vertex 1 Ycoordinate
    8.764,                    !- Vertex 1 Zcoordinate
    7.105,                    !- Vertex 2 Xcoordinate
    15.403,                   !- Vertex 2 Ycoordinate
    0,                        !- Vertex 2 Zcoordinate
    6.939,                    !- Vertex 3 Xcoordinate
    15.383,                   !- Vertex 3 Ycoordinate
    0,                        !- Vertex 3 Zcoordinate
    6.939,                    !- Vertex 4 Xcoordinate
    15.383,                   !- Vertex 4 Ycoordinate