!- Windows Line endings 

Version,
    24.2;                     !- Version Identifier

SimulationControl,
    No,                       !- Do Zone Sizing Calculation
    No,                       !- Do System Sizing Calculation
    No,                       !- Do Plant Sizing Calculation
    No,                       !- Run Simulation for Sizing Periods
    Yes,                      !- Run Simulation for Weather File Run Periods
    No,                       !- Do HVAC Sizing Simulation for Sizing Periods
    1;                        !- Maximum Number of HVAC Sizing Simulation Passes

BUILDING,
    Pand.0599100000100716,    !- Name
    0,                        !- North Axis
    City,                     !- Terrain
    0.04,                     !- Loads Convergence Tolerance Value
    0.4,                      !- Temperature Convergence Tolerance Value
    FullExterior,             !- Solar Distribution
    25,                       !- Maximum Number of Warmup Days
    1;                        !- Minimum Number of Warmup Days

Timestep,
    6;                        !- Number of Timesteps per Hour

Site:Location,
    Rotterdam.The.Hague.AP_ZH_NLD Design_Conditions,    !- Name
    51.96,                    !- Latitude
    4.45,                     !- Longitude
    1,                        !- Time Zone
    -4.5;                     !- Elevation

RunPeriod,
    Run Period 1,             !- Name
    1,                        !- Begin Month
    1,                        !- Begin Day of Month
    ,                         !- Begin Year
    12,                       !- End Month
    31,                       !- End Day of Month
    ,                         !- End Year
    ,                         !- Day of Week for Start Day
    Yes,                      !- Use Weather File Holidays and Special Days
    Yes,                      !- Use Weather File Daylight Saving Period
    No,                       !- Apply Weekend Holiday Rule
    Yes,                      !- Use Weather File Rain Indicators
    Yes,                      !- Use Weather File Snow Indicators
    No,                       !- Treat Weather as Actual
    Hour24;                   !- First Hour Interpolation Starting Values

RunPeriodControl:DaylightSavingTime,
    Last Sunday in March,     !- Start Date
    Last Sunday in October;    !- End Date

SITE:GROUNDTEMPERATURE:BUILDINGSURFACE,
    18,                       !- January Ground Temperature
    18,                       !- February Ground Temperature
    18,                       !- March Ground Temperature
    18,                       !- April Ground Temperature
    18,                       !- May Ground Temperature
    18,                       !- June Ground Temperature
    18,                       !- July Ground Temperature
    18,                       !- August Ground Temperature
    18,                       !- September Ground Temperature
    18,                       !- October Ground Temperature
    18,                       !- November Ground Temperature
    18;                       !- December Ground Temperature

SCHEDULETYPELIMITS,
    Temperature,              !- Name
    -100,                     !- Lower Limit Value
    100,                      !- Upper Limit Value
    CONTINUOUS,               !- Numeric Type
    Temperature;              !- Unit Type

SCHEDULETYPELIMITS,
    Fraction,                 !- Name
    0,                        !- Lower Limit Value
    1,                        !- Upper Limit Value
    CONTINUOUS,               !- Numeric Type
    Dimensionless;            !- Unit Type

SCHEDULETYPELIMITS,
    Control Type,             !- Name
    0,                        !- Lower Limit Value
    4,                        !- Upper Limit Value
    DISCRETE,                 !- Numeric Type
    Dimensionless;            !- Unit Type

SCHEDULE:COMPACT,
    HeatingSetpoint_Zone_0599100000100716,    !- Name
    Temperature,              !- Schedule Type Limits Name
    Through: 12/31,           !- Field 1
    For: AllDays,             !- Field 2
    Until: 24:00,             !- Field 3
    21.0;                     !- Field 4

SCHEDULE:COMPACT,
    CoolingSetpoint_Zone_0599100000100716,    !- Name
    Temperature,              !- Schedule Type Limits Name
    Through: 12/31,           !- Field 1
    For: AllDays,             !- Field 2
    Until: 24:00,             !- Field 3
    24.0;                     !- Field 4

SCHEDULE:COMPACT,
    DualSetpointControlType,    !- Name
    Control Type,             !- Schedule Type Limits Name
    Through: 12/31,           !- Field 1
    For: AllDays,             !- Field 2
    Until: 24:00,             !- Field 3
    4;                        !- Field 4

SCHEDULE:COMPACT,
    AlwaysOn,                 !- Name
    Fraction,                 !- Schedule Type Limits Name
    Through: 12/31,           !- Field 1
    For: AllDays,             !- Field 2
    Until: 24:00,             !- Field 3
    1.0;                      !- Field 4

MATERIAL,
    G.TC.1946-1964,           !- Name
    MediumSmooth,             !- Roughness
    0.15,                     !- Thickness
    1,                        !- Conductivity
    540,                      !- Density
    1210,                     !- Specific Heat
    0.9,                      !- Thermal Absorptance
    0.7,                      !- Solar Absorptance
    0.7;                      !- Visible Absorptance

MATERIAL,
    F.TC.1946-1964,           !- Name
    Rough,                    !- Roughness
    0.3,                      !- Thickness
    0.8571428571428572,       !- Conductivity
    1920,                     !- Density
    840,                      !- Specific Heat
    0.9,                      !- Thermal Absorptance
    0.7,                      !- Solar Absorptance
    0.7;                      !- Visible Absorptance

MATERIAL,
    R.TC.1946-1964,           !- Name
    MediumRough,              !- Roughness
    0.2,                      !- Thickness
    2.352941e-01,             !- Conductivity
    1500,                     !- Density
    1000,                     !- Specific Heat
    0.9,                      !- Thermal Absorptance
    0.7,                      !- Solar Absorptance
    0.7;                      !- Visible Absorptance

WINDOWMATERIAL:SIMPLEGLAZINGSYSTEM,
    W.TC.1946-1964,           !- Name
    1.8,                      !- UFactor
    0.4,                      !- Solar Heat Gain Coefficient
    0.6;                      !- Visible Transmittance

CONSTRUCTION,
    C_G,                      !- Name
    G.TC.1946-1964;           !- Outside Layer

CONSTRUCTION,
    C_F,                      !- Name
    F.TC.1946-1964;           !- Outside Layer

CONSTRUCTION,
    C_R,                      !- Name
    R.TC.1946-1964;           !- Outside Layer

GlobalGeometryRules,
    UpperLeftCorner,          !- Starting Vertex Position
    Counterclockwise,         !- Vertex Entry Direction
    World,                    !- Coordinate System
    World,                    !- Daylighting Reference Point Coordinate System
    Relative;                 !- Rectangular Surface Coordinate System

ZONE,
    Zone_0599100000100716,    !- Name
    0,                        !- Direction of Relative North
    0,                        !- X Origin
    0,                        !- Y Origin
    0,                        !- Z Origin
    1,                        !- Type
    1,                        !- Multiplier
    Autocalculate,            !- Ceiling Height
    Autocalculate,            !- Volume
    autocalculate,            !- Floor Area
    ,                         !- Zone Inside Convection Algorithm
    ,                         !- Zone Outside Convection Algorithm
    Yes;                      !- Part of Total Floor Area

BUILDINGSURFACE:DETAILED,
    G_0,                      !- Name
    Floor,                    !- Surface Type
    C_G,                      !- Construction Name
    Zone_0599100000100716,    !- Zone Name
    ,                         !- Space Name
    Ground,                   !- Outside Boundary Condition
    ,                         !- Outside Boundary Condition Object
    SunExposed,               !- Sun Exposure
    WindExposed,              !- Wind Exposure
    0.5,                      !- View Factor to Ground
    25,                       !- Number of Vertices
    11.161,                   !- Vertex 1 Xcoordinate
    10.95,                    !- Vertex 1 Ycoordinate
    0,                        !- Vertex 1 Zcoordinate
    12.541,                   !- Vertex 2 Xcoordinate
    11.08,                    !- Vertex 2 Ycoordinate
    0,                        !- Vertex 2 Zcoordinate
    14.26,                    !- Vertex 3 Xcoordinate
    9.64,                     !- Vertex 3 Ycoordinate
    0,                        !- Vertex 3 Zcoordinate
    14.311,                   !- Vertex 4 Xcoordinate
    9.039,                    !- Vertex 4 Ycoordinate
    0,                        !- Vertex 4 Zcoordinate
    8.78,                     !- Vertex 5 Xcoordinate
    2.509,                    !- Vertex 5 Ycoordinate
    0,                        !- Vertex 5 Zcoordinate
    8.061,                    !- Vertex 6 Xcoordinate
    3.08,                     !- Vertex 6 Ycoordinate
    0,                        !- Vertex 6 Zcoordinate
    5.45,                     !- Vertex 7 Xcoordinate
    0,                        !- Vertex 7 Ycoordinate
    0,                        !- Vertex 7 Zcoordinate
    0.096,                    !- Vertex 8 Xcoordinate
    4.49,                     !- Vertex 8 Ycoordinate
    0,                        !- Vertex 8 Zcoordinate
    0.333,                    !- Vertex 9 Xcoordinate
    4.796,                    !- Vertex 9 Ycoordinate
    0,                        !- Vertex 9 Zcoordinate
    0.254,                    !- Vertex 10 Xcoordinate
    4.874,                    !- Vertex 10 Ycoordinate
    0,                        !- Vertex 10 Zcoordinate
    1.449,                    !- Vertex 11 Xcoordinate
    6.236,                    !- Vertex 11 Ycoordinate
    0,                        !- Vertex 11 Zcoordinate
    2.217,                    !- Vertex 12 Xcoordinate
    7.228,                    !- Vertex 12 Ycoordinate
    0,                        !- Vertex 12 Zcoordinate
    2.561,                    !- Vertex 13 Xcoordinate
    7.64,                     !- Vertex 13 Ycoordinate
    0,                        !- Vertex 13 Zcoordinate
    1.77,                     !- Vertex 14 Xcoordinate
    8.3,                      !- Vertex 14 Ycoordinate
    0,                        !- Vertex 14 Zcoordinate
    3.19,                     !- Vertex 15 Xcoordinate
    9.989,                    !- Vertex 15 Ycoordinate
    0,                        !- Vertex 15 Zcoordinate
    3.981,                    !- Vertex 16 Xcoordinate
    9.33,                     !- Vertex 16 Ycoordinate
    0,                        !- Vertex 16 Zcoordinate
    6.411,                    !- Vertex 17 Xcoordinate
    12.229,                   !- Vertex 17 Ycoordinate
    0,                        !- Vertex 17 Zcoordinate
    6.551,                    !- Vertex 18 Xcoordinate
    12.119,                   !- Vertex 18 Ycoordinate
    0,                        !- Vertex 18 Zcoordinate
    8.19,                     !- Vertex 19 Xcoordinate
    14.08,                    !- Vertex 19 Ycoordinate
    0,                        !- Vertex 19 Zcoordinate
    8.801,                    !- Vertex 20 Xcoordinate
    13.59,                    !- Vertex 20 Ycoordinate
    0,                        !- Vertex 20 Zcoordinate
    9.46,                     !- Vertex 21 Xcoordinate
    13.66,                    !- Vertex 21 Ycoordinate
    0,                        !- Vertex 21 Zcoordinate
    9.34,                     !- Vertex 22 Xcoordinate
    13.08,                    !- Vertex 22 Ycoordinate
    0,                        !- Vertex 22 Zcoordinate
    10.25,                    !- Vertex 23 Xcoordinate
    12.979,                   !- Vertex 23 Ycoordinate
    0,                        !- Vertex 23 Zcoordinate
    10.311,                   !- Vertex 24 Xcoordinate
    12.259,                   !- Vertex 24 Ycoordinate
    0,                        !- Vertex 24 Zcoordinate
    11.03,                    !- Vertex 25 Xcoordinate
    12.319,                   !- Vertex 25 Ycoordinate
    0;                        !- Vertex 25 Zcoordinate

BUILDINGSURFACE:DETAILED,
    F_1,                      !- Name
    Wall,                     !- Surface Type
    C_F,                      !- Construction Name
    Zone_0599100000100716,    !- Zone Name
    ,                         !- Space Name
    Outdoors,                 !- Outside Boundary Condition
    ,                         !- Outside Boundary Condition Object
    SunExposed,               !- Sun Exposure
    WindExposed,              !- Wind Exposure
    0.5,                      !- View Factor to Ground
    4,                        !- Number of Vertices
    12.541,                   !- Vertex 1 Xcoordinate
    11.08,                    !- Vertex 1 Ycoordinate
    8.632,                    !- Vertex 1 Zcoordinate
    12.541,                   !- Vertex 2 Xcoordinate
    11.08,                    !- Vertex 2 Ycoordinate
    0,                        !- Vertex 2 Zcoordinate
    11.161,                   !- Vertex 3 Xcoordinate
    10.95,                    !- Vertex 3 Ycoordinate
    0,                        !- Vertex 3 Zcoordinate
    11.161,                   !- Vertex 4 Xcoordinate
    10.95,                    !- Vertex 4 Ycoordinate
    8.632;                    !- Vertex 4 Zcoordinate

BUILDINGSURFACE:DETAILED,
    F_2,                      !- Name
    Wall,                     !- Surface Type
    C_F,                      !- Construction Name
    Zone_0599100000100716,    !- Zone Name
    ,                         !- Space Name
    Outdoors,                 !- Outside Boundary Condition
    ,                         !- Outside Boundary Condition Object
    SunExposed,               !- Sun Exposure
    WindExposed,              !- Wind Exposure
    0.5,                      !- View Factor to Ground
    4,                        !- Number of Vertices
    14.26,                    !- Vertex 1 Xcoordinate
    9.64,                     !- Vertex 1 Ycoordinate
    8.632,                    !- Vertex 1 Zcoordinate
    14.26,                    !- Vertex 2 Xcoordinate
    9.64,                     !- Vertex 2 Ycoordinate
    0,                        !- Vertex 2 Zcoordinate
    12.541,                   !- Vertex 3 Xcoordinate
    11.08,                    !- Vertex 3 Ycoordinate
    0,                        !- Vertex 3 Zcoordinate
    12.541,                   !- Vertex 4 Xcoordinate
    11.08,                    !- Vertex 4 Ycoordinate
    8.632;                    !- Vertex 4 Zcoordinate

BUILDINGSURFACE:DETAILED,
    F_3,                      !- Name
    Wall,                     !- Surface Type
    C_F,                      !- Construction Name
    Zone_0599100000100716,    !- Zone Name
    ,                         !- Space Name
    Outdoors,                 !- Outside Boundary Condition
    ,                         !- Outside Boundary Condition Object
    SunExposed,               !- Sun Exposure
    WindExposed,              !- Wind Exposure
    0.5,                      !- View Factor to Ground
    4,                        !- Number of Vertices
    14.311,                   !- Vertex 1 Xcoordinate
    9.039,                    !- Vertex 1 Ycoordinate
    8.632,                    !- Vertex 1 Zcoordinate
    14.311,                   !- Vertex 2 Xcoordinate
    9.039,                    !- Vertex 2 Ycoordinate
    0,                        !- Vertex 2 Zcoordinate
    14.26,                    !- Vertex 3 Xcoordinate
    9.64,                     !- Vertex 3 Ycoordinate
    0,                        !- Vertex 3 Zcoordinate
    14.26,                    !- Vertex 4 Xcoordinate
    9.64,                     !- Vertex 4 Ycoordinate
    8.632;                    !- Vertex 4 Zcoordinate

BUILDINGSURFACE:DETAILED,
    F_4,                      !- Name
    Wall,                     !- Surface Type
    C_F,                      !- Construction Name
    Zone_0599100000100716,    !- Zone Name
    ,                         !- Space Name
    Outdoors,                 !- Outside Boundary Condition
    ,                         !- Outside Boundary Condition Object
    SunExposed,               !- Sun Exposure
    WindExposed,              !- Wind Exposure
    0.5,                      !- View Factor to Ground
    4,                        !- Number of Vertices
    11.161,                   !- Vertex 1 Xcoordinate
    10.95,                    !- Vertex 1 Ycoordinate
    8.632,                    !- Vertex 1 Zcoordinate
    11.161,                   !- Vertex 2 Xcoordinate
    10.95,                    !- Vertex 2 Ycoordinate
    0,                        !- Vertex 2 Zcoordinate
    11.03,                    !- Vertex 3 Xcoordinate
    12.319,                   !- Vertex 3 Ycoordinate
    0,                        !- Vertex 3 Zcoordinate
    11.03,                    !- Vertex 4 Xcoordinate
    12.319,                   !- Vertex 4 Ycoordinate
    8.632;                    !- Vertex 4 Zcoordinate

BUILDINGSURFACE:DETAILED,
    F_5,                      !- Name
    Wall,                     !- Surface Type
    C_F,                      !- Construction Name
    Zone_0599100000100716,    !- Zone Name
    ,                         !- Space Name
    Outdoors,                 !- Outside Boundary Condition
    ,                         !- Outside Boundary Condition Object
    SunExposed,               !- Sun Exposure
    WindExposed,              !- Wind Exposure
    0.5,                      !- View Factor to Ground
    4,                        !- Number of Vertices
    11.03,                    !- Vertex 1 Xcoordinate
    12.319,                   !- Vertex 1 Ycoordinate
    8.632,                    !- Vertex 1 Zcoordinate
    11.03,                    !- Vertex 2 Xcoordinate
    12.319,                   !- Vertex 2 Ycoordinate
    0,                        !- Vertex 2 Zcoordinate
    10.311,                   !- Vertex 3 Xcoordinate
    12.259,                   !- Vertex 3 Ycoordinate
    0,                        !- Vertex 3 Zcoordinate
    10.311,                   !- Vertex 4 Xcoordinate
    12.259,                   !- Vertex 4 Ycoordinate
    8.632;                    !- Vertex 4 Zcoordinate

BUILDINGSURFACE:DETAILED,
    F_6,                      !- Name
    Wall,                     !- Surface Type
    C_F,                      !- Construction Name
    Zone_0599100000100716,    !- Zone Name
    ,                         !- Space Name
    Outdoors,                 !- Outside Boundary Condition
    ,                         !- Outside Boundary Condition Object
    SunExposed,               !- Sun Exposure
    WindExposed,              !- Wind Exposure
    0.5,                      !- View Factor to Ground
    4,                        !- Number of Vertices
    10.311,                   !- Vertex 1 Xcoordinate
    12.259,                   !- Vertex 1 Ycoordinate
    8.632,                    !- Vertex 1 Zcoordinate
    10.311,                   !- Vertex 2 Xcoordinate
    12.259,                   !- Vertex 2 Ycoordinate
    0,                        !- Vertex 2 Zcoordinate
    10.25,                    !- Vertex 3 Xcoordinate
    12.979,                   !- Vertex 3 Ycoordinate
    0,                        !- Vertex 3 Zcoordinate
    10.25,                    !- Vertex 4 Xcoordinate
    12.979,                   !- Vertex 4 Ycoordinate
    8.632;                    !- Vertex 4 Zcoordinate

BUILDINGSURFACE:DETAILED,
    F_7,                      !- Name
    Wall,                     !- Surface Type
    C_F,                      !- Construction Name
    Zone_0599100000100716,    !- Zone Name
    ,                         !- Space Name
    Outdoors,                 !- Outside Boundary Condition
    ,                         !- Outside Boundary Condition Object
    SunExposed,               !- Sun Exposure
    WindExposed,              !- Wind Exposure
    0.5,                      !- View Factor to Ground
    4,                        !- Number of Vertices
    10.25,                    !- Vertex 1 Xcoordinate
    12.979,                   !- Vertex 1 Ycoordinate
    8.632,                    !- Vertex 1 Zcoordinate
    10.25,                    !- Vertex 2 Xcoordinate
    12.979,                   !- Vertex 2 Ycoordinate
    0,                        !- Vertex 2 Zcoordinate
    9.34,                     !- Vertex 3 Xcoordinate
    13.08,                    !- Vertex 3 Ycoordinate
    0,                        !- Vertex 3 Zcoordinate
    9.34,                     !- Vertex 4 Xcoordinate
    13.08,                    !- Vertex 4 Ycoordinate
    8.632;                    !- Vertex 4 Zcoordinate

BUILDINGSURFACE:DETAILED,
    F_8,                      !- Name
    Wall,                     !- Surface Type
    C_F,                      !- Construction Name
    Zone_0599100000100716,    !- Zone Name
    ,                         !- Space Name
    Outdoors,                 !- Outside Boundary Condition
    ,                         !- Outside Boundary Condition Object
    SunExposed,               !- Sun Exposure
    WindExposed,              !- Wind Exposure
    0.5,                      !- View Factor to Ground
    4,                        !- Number of Vertices
    9.34,                     !- Vertex 1 Xcoordinate
    13.08,                    !- Vertex 1 Ycoordinate
    8.632,                    !- Vertex 1 Zcoordinate
    9.34,                     !- Vertex 2 Xcoordinate
    13.08,                    !- Vertex 2 Ycoordinate
    0,                        !- Vertex 2 Zcoordinate
    9.46,                     !- Vertex 3 Xcoordinate
    13.66,                    !- Vertex 3 Ycoordinate
    0,                        !- Vertex 3 Zcoordinate
    9.46,                     !- Vertex 4 Xcoordinate
    13.66,                    !- Vertex 4 Ycoordinate
    8.632;                    !- Vertex 4 Zcoordinate

BUILDINGSURFACE:DETAILED,
    F_9,                      !- Name
    Wall,                     !- Surface Type
    C_F,                      !- Construction Name
    Zone_0599100000100716,    !- Zone Name
    ,                         !- Space Name
    Outdoors,                 !- Outside Boundary Condition
    ,                         !- Outside Boundary Condition Object
    SunExposed,               !- Sun Exposure
    WindExposed,              !- Wind Exposure
    0.5,                      !- View Factor to Ground
    4,                        !- Number of Vertices
    8.19,                     !- Vertex 1 Xcoordinate
    14.08,                    !- Vertex 1 Ycoordinate
    8.632,                    !- Vertex 1 Zcoordinate
    8.19,                     !- Vertex 2 Xcoordinate
    14.08,                    !- Vertex 2 Ycoordinate
    0,                        !- Vertex 2 Zcoordinate
    6.551,                    !- Vertex 3 Xcoordinate
    12.119,                   !- Vertex 3 Ycoordinate
    0,                        !- Vertex 3 Zcoordinate
    6.551,                    !- Vertex 4 Xcoordinate
    12.119,                   !- Vertex 4 Ycoordinate
    8.632;                    !- Vertex 4 Zcoordinate

BUILDINGSURFACE:DETAILED,
    F_10,                     !- Name
    Wall,                     !- Surface Type
    C_F,                      !- Construction Name
    Zone_0599100000100716,    !- Zone Name
    ,                         !- Space Name
    Outdoors,                 !- Outside Boundary Condition
    ,                         !- Outside Boundary Condition Object
    SunExposed,               !- Sun Exposure
    WindExposed,              !- Wind Exposure
    0.5,                      !- View Factor to Ground
    4,                        !- Number of Vertices
    8.801,                    !- Vertex 1 Xcoordinate
    13.59,                    !- Vertex 1 Ycoordinate
    8.632,                    !- Vertex 1 Zcoordinate
    8.801,                    !- Vertex 2 Xcoordinate
    13.59,                    !- Vertex 2 Ycoordinate
    0,                        !- Vertex 2 Zcoordinate
    8.19,                     !- Vertex 3 Xcoordinate
    14.08,                    !- Vertex 3 Ycoordinate
    0,                        !- Vertex 3 Zcoordinate
    8.19,                     !- Vertex 4 Xcoordinate
    14.08,                    !- Vertex 4 Ycoordinate
    8.632;                    !- Vertex 4 Zcoordinate

BUILDINGSURFACE:DETAILED,
    F_11,                     !- Name
    Wall,                     !- Surface Type
    C_F,                      !- Construction Name
    Zone_0599100000100716,    !- Zone Name
    ,                         !- Space Name
    Outdoors,                 !- Outside Boundary Condition
    ,                         !- Outside Boundary Condition Object
    SunExposed,               !- Sun Exposure
    WindExposed,              !- Wind Exposure
    0.5,                      !- View Factor to Ground
    4,                        !- Number of Vertices
    9.46,                     !- Vertex 1 Xcoordinate
    13.66,                    !- Vertex 1 Ycoordinate
    8.632,                    !- Vertex 1 Zcoordinate
    9.46,                     !- Vertex 2 Xcoordinate
    13.66,                    !- Vertex 2 Ycoordinate
    0,                        !- Vertex 2 Zcoordinate
    8.801,                    !- Vertex 3 Xcoordinate
    13.59,                    !- Vertex 3 Ycoordinate
    0,                        !- Vertex 3 Zcoordinate
    8.801,                    !- Vertex 4 Xcoordinate
    13.59,                    !- Vertex 4 Ycoordinate
    8.632;                    !- Vertex 4 Zcoordinate

BUILDINGSURFACE:DETAILED,
    F_12,                     !- Name
    Wall,                     !- Surface Type
    C_F,                      !- Construction Name
    Zone_0599100000100716,    !- Zone Name
    ,                         !- Space Name
    Outdoors,                 !- Outside Boundary Condition
    ,                         !- Outside Boundary Condition Object
    SunExposed,               !- Sun Exposure
    WindExposed,              !- Wind Exposure
    0.5,                      !- View Factor to Ground
    4,                        !- Number of Vertices
    6.551,                    !- Vertex 1 Xcoordinate
    12.119,                   !- Vertex 1 Ycoordinate
    8.632,                    !- Vertex 1 Zcoordinate
    6.551,                    !- Vertex 2 Xcoordinate
    12.119,                   !- Vertex 2 Ycoordinate
    0,                        !- Vertex 2 Zcoordinate
    6.411,                    !- Vertex 3 Xcoordinate
    12.229,                   !- Vertex 3 Ycoordinate
    0,                        !- Vertex 3 Zcoordinate
    6.411,                    !- Vertex 4 Xcoordinate
    12.229,                   !- Vertex 4 Ycoordinate
    8.632;                    !- Vertex 4 Zcoordinate

BUILDINGSURFACE:DETAILED,
    F_13,                     !- Name
    Wall,                     !- Surface Type
    C_F,                      !- Construction Name
    Zone_0599100000100716,    !- Zone Name
    ,                         !- Space Name
    Outdoors,                 !- Outside Boundary Condition
    ,                         !- Outside Boundary Condition Object
    SunExposed,               !- Sun Exposure
    WindExposed,              !- Wind Exposure
    0.5,                      !- View Factor to Ground
    4,                        !- Number of Vertices
    6.411,                    !- Vertex 1 Xcoordinate
    12.229,                   !- Vertex 1 Ycoordinate
    8.632,                    !- Vertex 1 Zcoordinate
    6.411,                    !- Vertex 2 Xcoordinate
    12.229,                   !- Vertex 2 Ycoordinate
    0,                        !- Vertex 2 Zcoordinate
    3.981,                    !- Vertex 3 Xcoordinate
    9.33,                     !- Vertex 3 Ycoordinate
    0,                        !- Vertex 3 Zcoordinate
    3.981,                    !- Vertex 4 Xcoordinate
    9.33,                     !- Vertex 4 Ycoordinate
    8.632;                    !- Vertex 4 Zcoordinate

BUILDINGSURFACE:DETAILED,
    F_14,                     !- Name
    Wall,                     !- Surface Type
    C_F,                      !- Construction Name
    Zone_0599100000100716,    !- Zone Name
    ,                         !- Space Name
    Outdoors,                 !- Outside Boundary Condition
    ,                         !- Outside Boundary Condition Object
    SunExposed,               !- Sun Exposure
    WindExposed,              !- Wind Exposure
    0.5,                      !- View Factor to Ground
    4,                        !- Number of Vertices
    3.981,                    !- Vertex 1 Xcoordinate
    9.33,                     !- Vertex 1 Ycoordinate
    8.632,                    !- Vertex 1 Zcoordinate
    3.981,                    !- Vertex 2 Xcoordinate
    9.33,                     !- Vertex 2 Ycoordinate
    0,                        !- Vertex 2 Zcoordinate
    3.19,                     !- Vertex 3 Xcoordinate
    9.989,                    !- Vertex 3 Ycoordinate
    0,                        !- Vertex 3 Zcoordinate
    3.19,                     !- Vertex 4 Xcoordinate
    9.989,                    !- Vertex 4 Ycoordinate
    8.632;                    !- Vertex 4 Zcoordinate

BUILDINGSURFACE:DETAILED,
    F_15,                     !- Name
    Wall,                     !- Surface Type
    C_F,                      !- Construction Name
    Zone_0599100000100716,    !- Zone Name
    ,                         !- Space Name
    Outdoors,                 !- Outside Boundary Condition
    ,                         !- Outside Boundary Condition Object