!- Windows Line endings 

Version,
    24.2;                     !- Version Identifier

SimulationControl,
    No,                       !- Do Zone Sizing Calculation
    No,                       !- Do System Sizing Calculation
    No,                       !- Do Plant Sizing Calculation
    No,                       !- Run Simulation for Sizing Periods
    Yes,                      !- Run Simulation for Weather File Run Periods
    No,                       !- Do HVAC Sizing Simulation for Sizing Periods
    1;                        !- Maximum Number of HVAC Sizing Simulation Passes

BUILDING,
    Pand.0599100000306771,    !- Name
    0,                        !- North Axis
    City,                     !- Terrain
    0.04,                     !- Loads Convergence Tolerance Value
    0.4,                      !- Temperature Convergence Tolerance Value
    FullExterior,             !- Solar Distribution
    25,                       !- Maximum Number of Warmup Days
    1;                        !- Minimum Number of Warmup Days

Timestep,
    6;                        !- Number of Timesteps per Hour

Site:Location,
    Rotterdam.The.Hague.AP_ZH_NLD Design_Conditions,    !- Name
    51.96,                    !- Latitude
    4.45,                     !- Longitude
    1,                        !- Time Zone
    -4.5;                     !- Elevation

RunPeriod,
    Run Period 1,             !- Name
    1,                        !- Begin Month
    1,                        !- Begin Day of Month
    ,                         !- Begin Year
    12,                       !- End Month
    31,                       !- End Day of Month
    ,                         !- End Year
    ,                         !- Day of Week for Start Day
    Yes,                      !- Use Weather File Holidays and Special Days
    Yes,                      !- Use Weather File Daylight Saving Period
    No,                       !- Apply Weekend Holiday Rule
    Yes,                      !- Use Weather File Rain Indicators
    Yes,                      !- Use Weather File Snow Indicators
    No,                       !- Treat Weather as Actual
    Hour24;                   !- First Hour Interpolation Starting Values

RunPeriodControl:DaylightSavingTime,
    Last Sunday in March,     !- Start Date
    Last Sunday in October;    !- End Date

SITE:GROUNDTEMPERATURE:BUILDINGSURFACE,
    18,                       !- January Ground Temperature
    18,                       !- February Ground Temperature
    18,                       !- March Ground Temperature
    18,                       !- April Ground Temperature
    18,                       !- May Ground Temperature
    18,                       !- June Ground Temperature
    18,                       !- July Ground Temperature
    18,                       !- August Ground Temperature
    18,                       !- September Ground Temperature
    18,                       !- October Ground Temperature
    18,                       !- November Ground Temperature
    18;                       !- December Ground Temperature

SCHEDULETYPELIMITS,
    Temperature,              !- Name
    -100,                     !- Lower Limit Value
    100,                      !- Upper Limit Value
    CONTINUOUS,               !- Numeric Type
    Temperature;              !- Unit Type

SCHEDULETYPELIMITS,
    Fraction,                 !- Name
    0,                        !- Lower Limit Value
    1,                        !- Upper Limit Value
    CONTINUOUS,               !- Numeric Type
    Dimensionless;            !- Unit Type

SCHEDULETYPELIMITS,
    Control Type,             !- Name
    0,                        !- Lower Limit Value
    4,                        !- Upper Limit Value
    DISCRETE,                 !- Numeric Type
    Dimensionless;            !- Unit Type

SCHEDULE:COMPACT,
    HeatingSetpoint_Zone_0599100000306771,    !- Name
    Temperature,              !- Schedule Type Limits Name
    Through: 12/31,           !- Field 1
    For: AllDays,             !- Field 2
    Until: 24:00,             !- Field 3
    21.0;                     !- Field 4

SCHEDULE:COMPACT,
    CoolingSetpoint_Zone_0599100000306771,    !- Name
    Temperature,              !- Schedule Type Limits Name
    Through: 12/31,           !- Field 1
    For: AllDays,             !- Field 2
    Until: 24:00,             !- Field 3
    24.0;                     !- Field 4

SCHEDULE:COMPACT,
    DualSetpointControlType,    !- Name
    Control Type,             !- Schedule Type Limits Name
    Through: 12/31,           !- Field 1
    For: AllDays,             !- Field 2
    Until: 24:00,             !- Field 3
    4;                        !- Field 4

SCHEDULE:COMPACT,
    AlwaysOn,                 !- Name
    Fraction,                 !- Schedule Type Limits Name
    Through: 12/31,           !- Field 1
    For: AllDays,             !- Field 2
    Until: 24:00,             !- Field 3
    1.0;                      !- Field 4

MATERIAL,
    G.TC.1975-1991,           !- Name
    MediumSmooth,             !- Roughness
    0.15,                     !- Thickness
    2.884615e-01,             !- Conductivity
    540,                      !- Density
    1210,                     !- Specific Heat
    0.9,                      !- Thermal Absorptance
    0.7,                      !- Solar Absorptance
    0.7;                      !- Visible Absorptance

MATERIAL,
    F.TC.1975-1991,           !- Name
    Rough,                    !- Roughness
    0.3,                      !- Thickness
    2.307692e-01,             !- Conductivity
    1920,                     !- Density
    840,                      !- Specific Heat
    0.9,                      !- Thermal Absorptance
    0.7,                      !- Solar Absorptance
    0.7;                      !- Visible Absorptance

MATERIAL,
    R.TC.1975-1991,           !- Name
    MediumRough,              !- Roughness
    0.2,                      !- Thickness
    1.538462e-01,             !- Conductivity
    1500,                     !- Density
    1000,                     !- Specific Heat
    0.9,                      !- Thermal Absorptance
    0.7,                      !- Solar Absorptance
    0.7;                      !- Visible Absorptance

WINDOWMATERIAL:SIMPLEGLAZINGSYSTEM,
    W.TC.1975-1991,           !- Name
    2.9,                      !- UFactor
    0.6,                      !- Solar Heat Gain Coefficient
    0.6;                      !- Visible Transmittance

CONSTRUCTION,
    C_G,                      !- Name
    G.TC.1975-1991;           !- Outside Layer

CONSTRUCTION,
    C_F,                      !- Name
    F.TC.1975-1991;           !- Outside Layer

CONSTRUCTION,
    C_R,                      !- Name
    R.TC.1975-1991;           !- Outside Layer

GlobalGeometryRules,
    UpperLeftCorner,          !- Starting Vertex Position
    Counterclockwise,         !- Vertex Entry Direction
    World,                    !- Coordinate System
    World,                    !- Daylighting Reference Point Coordinate System
    Relative;                 !- Rectangular Surface Coordinate System

ZONE,
    Zone_0599100000306771,    !- Name
    0,                        !- Direction of Relative North
    0,                        !- X Origin
    0,                        !- Y Origin
    0,                        !- Z Origin
    1,                        !- Type
    1,                        !- Multiplier
    Autocalculate,            !- Ceiling Height
    Autocalculate,            !- Volume
    autocalculate,            !- Floor Area
    ,                         !- Zone Inside Convection Algorithm
    ,                         !- Zone Outside Convection Algorithm
    Yes;                      !- Part of Total Floor Area

BUILDINGSURFACE:DETAILED,
    G_0,                      !- Name
    Floor,                    !- Surface Type
    C_G,                      !- Construction Name
    Zone_0599100000306771,    !- Zone Name
    ,                         !- Space Name
    Ground,                   !- Outside Boundary Condition
    ,                         !- Outside Boundary Condition Object
    SunExposed,               !- Sun Exposure
    WindExposed,              !- Wind Exposure
    0.5,                      !- View Factor to Ground
    17,                       !- Number of Vertices
    3.359,                    !- Vertex 1 Xcoordinate
    6.861,                    !- Vertex 1 Ycoordinate
    0,                        !- Vertex 1 Zcoordinate
    5.359,                    !- Vertex 2 Xcoordinate
    7.857,                    !- Vertex 2 Ycoordinate
    0,                        !- Vertex 2 Zcoordinate
    6.931,                    !- Vertex 3 Xcoordinate
    8.203,                    !- Vertex 3 Ycoordinate
    0,                        !- Vertex 3 Zcoordinate
    6.641,                    !- Vertex 4 Xcoordinate
    8.42,                     !- Vertex 4 Ycoordinate
    0,                        !- Vertex 4 Zcoordinate
    8.77,                     !- Vertex 5 Xcoordinate
    9.279,                    !- Vertex 5 Ycoordinate
    0,                        !- Vertex 5 Zcoordinate
    9.06,                     !- Vertex 6 Xcoordinate
    8.507,                    !- Vertex 6 Ycoordinate
    0,                        !- Vertex 6 Zcoordinate
    9.083,                    !- Vertex 7 Xcoordinate
    8.591,                    !- Vertex 7 Ycoordinate
    0,                        !- Vertex 7 Zcoordinate
    9.475,                    !- Vertex 8 Xcoordinate
    7.621,                    !- Vertex 8 Ycoordinate
    0,                        !- Vertex 8 Zcoordinate
    9.396,                    !- Vertex 9 Xcoordinate
    7.611,                    !- Vertex 9 Ycoordinate
    0,                        !- Vertex 9 Zcoordinate
    9.54,                     !- Vertex 10 Xcoordinate
    7.225,                    !- Vertex 10 Ycoordinate
    0,                        !- Vertex 10 Zcoordinate
    9.598,                    !- Vertex 11 Xcoordinate
    7.318,                    !- Vertex 11 Ycoordinate
    0,                        !- Vertex 11 Zcoordinate
    11.083,                   !- Vertex 12 Xcoordinate
    3.641,                    !- Vertex 12 Ycoordinate
    0,                        !- Vertex 12 Zcoordinate
    10.912,                   !- Vertex 13 Xcoordinate
    3.567,                    !- Vertex 13 Ycoordinate
    0,                        !- Vertex 13 Zcoordinate
    10.944,                   !- Vertex 14 Xcoordinate
    3.482,                    !- Vertex 14 Ycoordinate
    0,                        !- Vertex 14 Zcoordinate
    2.322,                    !- Vertex 15 Xcoordinate
    0,                        !- Vertex 15 Ycoordinate
    0,                        !- Vertex 15 Zcoordinate
    0,                        !- Vertex 16 Xcoordinate
    5.742,                    !- Vertex 16 Ycoordinate
    0,                        !- Vertex 16 Zcoordinate
    2.517,                    !- Vertex 17 Xcoordinate
    6.757,                    !- Vertex 17 Ycoordinate
    0;                        !- Vertex 17 Zcoordinate

BUILDINGSURFACE:DETAILED,
    F_1,                      !- Name
    Wall,                     !- Surface Type
    C_F,                      !- Construction Name
    Zone_0599100000306771,    !- Zone Name
    ,                         !- Space Name
    Outdoors,                 !- Outside Boundary Condition
    ,                         !- Outside Boundary Condition Object
    SunExposed,               !- Sun Exposure
    WindExposed,              !- Wind Exposure
    0.5,                      !- View Factor to Ground
    4,                        !- Number of Vertices
    2.322,                    !- Vertex 1 Xcoordinate
    0,                        !- Vertex 1 Ycoordinate
    8.116,                    !- Vertex 1 Zcoordinate
    2.322,                    !- Vertex 2 Xcoordinate
    0,                        !- Vertex 2 Ycoordinate
    0,                        !- Vertex 2 Zcoordinate
    10.944,                   !- Vertex 3 Xcoordinate
    3.482,                    !- Vertex 3 Ycoordinate
    0,                        !- Vertex 3 Zcoordinate
    10.944,                   !- Vertex 4 Xcoordinate
    3.482,                    !- Vertex 4 Ycoordinate
    8.116;                    !- Vertex 4 Zcoordinate

BUILDINGSURFACE:DETAILED,
    F_2,                      !- Name
    Wall,                     !- Surface Type
    C_F,                      !- Construction Name
    Zone_0599100000306771,    !- Zone Name
    ,                         !- Space Name
    Outdoors,                 !- Outside Boundary Condition
    ,                         !- Outside Boundary Condition Object
    SunExposed,               !- Sun Exposure
    WindExposed,              !- Wind Exposure
    0.5,                      !- View Factor to Ground
    4,                        !- Number of Vertices
    0,                        !- Vertex 1 Xcoordinate
    5.742,                    !- Vertex 1 Ycoordinate
    8.116,                    !- Vertex 1 Zcoordinate
    0,                        !- Vertex 2 Xcoordinate
    5.742,                    !- Vertex 2 Ycoordinate
    0,                        !- Vertex 2 Zcoordinate
    2.322,                    !- Vertex 3 Xcoordinate
    0,                        !- Vertex 3 Ycoordinate
    0,                        !- Vertex 3 Zcoordinate
    2.322,                    !- Vertex 4 Xcoordinate
    0,                        !- Vertex 4 Ycoordinate
    8.116;                    !- Vertex 4 Zcoordinate

BUILDINGSURFACE:DETAILED,
    F_3,                      !- Name
    Wall,                     !- Surface Type
    C_F,                      !- Construction Name
    Zone_0599100000306771,    !- Zone Name
    ,                         !- Space Name
    Outdoors,                 !- Outside Boundary Condition
    ,                         !- Outside Boundary Condition Object
    SunExposed,               !- Sun Exposure
    WindExposed,              !- Wind Exposure
    0.5,                      !- View Factor to Ground
    4,                        !- Number of Vertices
    2.517,                    !- Vertex 1 Xcoordinate
    6.757,                    !- Vertex 1 Ycoordinate
    8.116,                    !- Vertex 1 Zcoordinate
    2.517,                    !- Vertex 2 Xcoordinate
    6.757,                    !- Vertex 2 Ycoordinate
    0,                        !- Vertex 2 Zcoordinate
    0,                        !- Vertex 3 Xcoordinate
    5.742,                    !- Vertex 3 Ycoordinate
    0,                        !- Vertex 3 Zcoordinate
    0,                        !- Vertex 4 Xcoordinate
    5.742,                    !- Vertex 4 Ycoordinate
    8.116;                    !- Vertex 4 Zcoordinate

BUILDINGSURFACE:DETAILED,
    F_4,                      !- Name
    Wall,                     !- Surface Type
    C_F,                      !- Construction Name
    Zone_0599100000306771,    !- Zone Name
    ,                         !- Space Name
    Outdoors,                 !- Outside Boundary Condition
    ,                         !- Outside Boundary Condition Object
    SunExposed,               !- Sun Exposure
    WindExposed,              !- Wind Exposure
    0.5,                      !- View Factor to Ground
    4,                        !- Number of Vertices
    10.912,                   !- Vertex 1 Xcoordinate
    3.567,                    !- Vertex 1 Ycoordinate
    8.116,                    !- Vertex 1 Zcoordinate
    10.912,                   !- Vertex 2 Xcoordinate
    3.567,                    !- Vertex 2 Ycoordinate
    0,                        !- Vertex 2 Zcoordinate
    11.083,                   !- Vertex 3 Xcoordinate
    3.641,                    !- Vertex 3 Ycoordinate
    0,                        !- Vertex 3 Zcoordinate
    11.083,                   !- Vertex 4 Xcoordinate
    3.641,                    !- Vertex 4 Ycoordinate
    8.116;                    !- Vertex 4 Zcoordinate

BUILDINGSURFACE:DETAILED,
    F_5,                      !- Name
    Wall,                     !- Surface Type
    C_F,                      !- Construction Name
    Zone_0599100000306771,    !- Zone Name
    ,                         !- Space Name
    Outdoors,                 !- Outside Boundary Condition
    ,                         !- Outside Boundary Condition Object
    SunExposed,               !- Sun Exposure
    WindExposed,              !- Wind Exposure
    0.5,                      !- View Factor to Ground
    4,                        !- Number of Vertices
    8.77,                     !- Vertex 1 Xcoordinate
    9.279,                    !- Vertex 1 Ycoordinate
    8.116,                    !- Vertex 1 Zcoordinate
    8.77,                     !- Vertex 2 Xcoordinate
    9.279,                    !- Vertex 2 Ycoordinate
    0,                        !- Vertex 2 Zcoordinate
    6.641,                    !- Vertex 3 Xcoordinate
    8.42,                     !- Vertex 3 Ycoordinate
    0,                        !- Vertex 3 Zcoordinate
    6.641,                    !- Vertex 4 Xcoordinate
    8.42,                     !- Vertex 4 Ycoordinate
    8.116;                    !- Vertex 4 Zcoordinate

BUILDINGSURFACE:DETAILED,
    F_6,                      !- Name
    Wall,                     !- Surface Type
    C_F,                      !- Construction Name
    Zone_0599100000306771,    !- Zone Name
    ,                         !- Space Name
    Outdoors,                 !- Outside Boundary Condition
    ,                         !- Outside Boundary Condition Object
    SunExposed,               !- Sun Exposure
    WindExposed,              !- Wind Exposure
    0.5,                      !- View Factor to Ground
    4,                        !- Number of Vertices
    6.641,                    !- Vertex 1 Xcoordinate
    8.42,                     !- Vertex 1 Ycoordinate
    8.116,                    !- Vertex 1 Zcoordinate
    6.641,                    !- Vertex 2 Xcoordinate
    8.42,                     !- Vertex 2 Ycoordinate
    0,                        !- Vertex 2 Zcoordinate
    6.931,                    !- Vertex 3 Xcoordinate
    8.203,                    !- Vertex 3 Ycoordinate
    0,                        !- Vertex 3 Zcoordinate
    6.931,                    !- Vertex 4 Xcoordinate
    8.203,                    !- Vertex 4 Ycoordinate
    8.116;                    !- Vertex 4 Zcoordinate

BUILDINGSURFACE:DETAILED,
    F_7,                      !- Name
    Wall,                     !- Surface Type
    C_F,                      !- Construction Name
    Zone_0599100000306771,    !- Zone Name
    ,                         !- Space Name
    Outdoors,                 !- Outside Boundary Condition
    ,                         !- Outside Boundary Condition Object
    SunExposed,               !- Sun Exposure
    WindExposed,              !- Wind Exposure
    0.5,                      !- View Factor to Ground
    4,                        !- Number of Vertices
    10.944,                   !- Vertex 1 Xcoordinate
    3.482,                    !- Vertex 1 Ycoordinate
    8.116,                    !- Vertex 1 Zcoordinate
    10.944,                   !- Vertex 2 Xcoordinate
    3.482,                    !- Vertex 2 Ycoordinate
    0,                        !- Vertex 2 Zcoordinate
    10.912,                   !- Vertex 3 Xcoordinate
    3.567,                    !- Vertex 3 Ycoordinate
    0,                        !- Vertex 3 Zcoordinate
    10.912,                   !- Vertex 4 Xcoordinate
    3.567,                    !- Vertex 4 Ycoordinate
    8.116;                    !- Vertex 4 Zcoordinate

BUILDINGSURFACE:DETAILED,
    F_8,                      !- Name
    Wall,                     !- Surface Type
    C_F,                      !- Construction Name
    Zone_0599100000306771,    !- Zone Name
    ,                         !- Space Name
    Outdoors,                 !- Outside Boundary Condition
    ,                         !- Outside Boundary Condition Object
    SunExposed,               !- Sun Exposure
    WindExposed,              !- Wind Exposure
    0.5,                      !- View Factor to Ground
    4,                        !- Number of Vertices
    9.396,                    !- Vertex 1 Xcoordinate
    7.611,                    !- Vertex 1 Ycoordinate
    8.116,                    !- Vertex 1 Zcoordinate
    9.396,                    !- Vertex 2 Xcoordinate
    7.611,                    !- Vertex 2 Ycoordinate
    0,                        !- Vertex 2 Zcoordinate
    9.475,                    !- Vertex 3 Xcoordinate
    7.621,                    !- Vertex 3 Ycoordinate
    0,                        !- Vertex 3 Zcoordinate
    9.475,                    !- Vertex 4 Xcoordinate
    7.621,                    !- Vertex 4 Ycoordinate
    8.116;                    !- Vertex 4 Zcoordinate

BUILDINGSURFACE:DETAILED,
    F_9,                      !- Name
    Wall,                     !- Surface Type
    C_F,                      !- Construction Name
    Zone_0599100000306771,    !- Zone Name
    ,                         !- Space Name
    Outdoors,                 !- Outside Boundary Condition
    ,                         !- Outside Boundary Condition Object
    SunExposed,               !- Sun Exposure
    WindExposed,              !- Wind Exposure
    0.5,                      !- View Factor to Ground
    4,                        !- Number of Vertices
    5.359,                    !- Vertex 1 Xcoordinate
    7.857,                    !- Vertex 1 Ycoordinate
    8.116,                    !- Vertex 1 Zcoordinate
    5.359,                    !- Vertex 2 Xcoordinate
    7.857,                    !- Vertex 2 Ycoordinate
    0,                        !- Vertex 2 Zcoordinate
    3.359,                    !- Vertex 3 Xcoordinate
    6.861,                    !- Vertex 3 Ycoordinate
    0,                        !- Vertex 3 Zcoordinate
    3.359,                    !- Vertex 4 Xcoordinate
    6.861,                    !- Vertex 4 Ycoordinate
    8.116;                    !- Vertex 4 Zcoordinate

BUILDINGSURFACE:DETAILED,
    F_10,                     !- Name
    Wall,                     !- Surface Type
    C_F,                      !- Construction Name
    Zone_0599100000306771,    !- Zone Name
    ,                         !- Space Name
    Outdoors,                 !- Outside Boundary Condition
    ,                         !- Outside Boundary Condition Object
    SunExposed,               !- Sun Exposure
    WindExposed,              !- Wind Exposure
    0.5,                      !- View Factor to Ground
    4,                        !- Number of Vertices
    9.06,                     !- Vertex 1 Xcoordinate
    8.507,                    !- Vertex 1 Ycoordinate
    8.116,                    !- Vertex 1 Zcoordinate
    9.06,                     !- Vertex 2 Xcoordinate
    8.507,                    !- Vertex 2 Ycoordinate
    0,                        !- Vertex 2 Zcoordinate
    8.77,                     !- Vertex 3 Xcoordinate
    9.279,                    !- Vertex 3 Ycoordinate
    0,                        !- Vertex 3 Zcoordinate
    8.77,                     !- Vertex 4 Xcoordinate
    9.279,                    !- Vertex 4 Ycoordinate
    8.116;                    !- Vertex 4 Zcoordinate

BUILDINGSURFACE:DETAILED,
    F_11,                     !- Name
    Wall,                     !- Surface Type
    C_F,                      !- Construction Name
    Zone_0599100000306771,    !- Zone Name
    ,                         !- Space Name
    Outdoors,                 !- Outside Boundary Condition
    ,                         !- Outside Boundary Condition Object
    SunExposed,               !- Sun Exposure
    WindExposed,              !- Wind Exposure
    0.5,                      !- View Factor to Ground
    4,                        !- Number of Vertices
    9.54,                     !- Vertex 1 Xcoordinate
    7.225,                    !- Vertex 1 Ycoordinate
    8.116,                    !- Vertex 1 Zcoordinate
    9.54,                     !- Vertex 2 Xcoordinate
    7.225,                    !- Vertex 2 Ycoordinate
    0,                        !- Vertex 2 Zcoordinate
    9.396,                    !- Vertex 3 Xcoordinate
    7.611,                    !- Vertex 3 Ycoordinate
    0,                        !- Vertex 3 Zcoordinate
    9.396,                    !- Vertex 4 Xcoordinate
    7.611,                    !- Vertex 4 Ycoordinate
    8.116;                    !- Vertex 4 Zcoordinate

BUILDINGSURFACE:DETAILED,
    F_12,                     !- Name
    Wall,                     !- Surface Type
    C_F,                      !- Construction Name
    Zone_0599100000306771,    !- Zone Name
    ,                         !- Space Name
    Outdoors,                 !- Outside Boundary Condition
    ,                         !- Outside Boundary Condition Object
    SunExposed,               !- Sun Exposure
    WindExposed,              !- Wind Exposure
    0.5,                      !- View Factor to Ground
    4,                        !- Number of Vertices
    9.475,                    !- Vertex 1 Xcoordinate
    7.621,                    !- Vertex 1 Ycoordinate
    8.116,                    !- Vertex 1 Zcoordinate
    9.475,                    !- Vertex 2 Xcoordinate
    7.621,                    !- Vertex 2 Ycoordinate
    0,                        !- Vertex 2 Zcoordinate
    9.083,                    !- Vertex 3 Xcoordinate
    8.591,                    !- Vertex 3 Ycoordinate
    0,                        !- Vertex 3 Zcoordinate
    9.083,                    !- Vertex 4 Xcoordinate
    8.591,                    !- Vertex 4 Ycoordinate
    8.116;                    !- Vertex 4 Zcoordinate

BUILDINGSURFACE:DETAILED,
    F_13,                     !- Name
    Wall,                     !- Surface Type
    C_F,                      !- Construction Name
    Zone_0599100000306771,    !- Zone Name
    ,                         !- Space Name
    Outdoors,                 !- Outside Boundary Condition
    ,                         !- Outside Boundary Condition Object
    SunExposed,               !- Sun Exposure
    WindExposed,              !- Wind Exposure
    0.5,                      !- View Factor to Ground
    4,                        !- Number of Vertices
    9.083,                    !- Vertex 1 Xcoordinate
    8.591,                    !- Vertex 1 Ycoordinate
    8.116,                    !- Vertex 1 Zcoordinate
    9.083,                    !- Vertex 2 Xcoordinate
    8.591,                    !- Vertex 2 Ycoordinate
    0,                        !- Vertex 2 Zcoordinate
    9.06,                     !- Vertex 3 Xcoordinate
    8.507,                    !- Vertex 3 Ycoordinate
    0,                        !- Vertex 3 Zcoordinate
    9.06,                     !- Vertex 4 Xcoordinate
    8.507,                    !- Vertex 4 Ycoordinate
    8.116;                    !- Vertex 4 Zcoordinate

BUILDINGSURFACE:DETAILED,
    F_14,                     !- Name
    Wall,                     !- Surface Type
    C_F,                      !- Construction Name
    Zone_0599100000306771,    !- Zone Name
    ,                         !- Space Name
    Outdoors,                 !- Outside Boundary Condition
    ,                         !- Outside Boundary Condition Object
    SunExposed,               !- Sun Exposure
    WindExposed,              !- Wind Exposure
    0.5,                      !- View Factor to Ground
    4,                        !- Number of Vertices
    11.083,                   !- Vertex 1 Xcoordinate
    3.641,                    !- Vertex 1 Ycoordinate
    8.116,                    !- Vertex 1 Zcoordinate
    11.083,                   !- Vertex 2 Xcoordinate
    3.641,                    !- Vertex 2 Ycoordinate
    0,                        !- Vertex 2 Zcoordinate
    9.598,                    !- Vertex 3 Xcoordinate
    7.318,                    !- Vertex 3 Ycoordinate
    0,                        !- Vertex 3 Zcoordinate
    9.598,                    !- Vertex 4 Xcoordinate
    7.318,                    !- Vertex 4 Ycoordinate
    8.116;                    !- Vertex 4 Zcoordinate

BUILDINGSURFACE:DETAILED,
    F_15,                     !- Name
    Wall,                     !- Surface Type
    C_F,                      !- Construction Name
    Zone_0599100000306771,    !- Zone Name
    ,                         !- Space Name
    Outdoors,                 !- Outside Boundary Condition
    ,                         !- Outside Boundary Condition Object
    SunExposed,               !- Sun Exposure
    WindExposed,              !- Wind Exposure
    0.5,                      !- View Factor to Ground
    4,                        !- Number of Vertices
    6.931,                    !- Vertex 1 Xcoordinate
    8.203,                    !- Vertex 1 Ycoordinate
    8.116,                    !- Vertex 1 Zcoordinate
    6.931,                    !- Vertex 2 Xcoordinate
    8.203,                    !- Vertex 2 Ycoordinate
    0,                        !- Vertex 2 Zcoordinate
    5.359,                    !- Vertex 3 Xcoordinate
    7.857,                    !- Vertex 3 Ycoordinate
    0,                        !- Vertex 3 Zcoordinate
    5.359,                    !- Vertex 4 Xcoordinate
    7.857,                    !- Vertex 4 Ycoordinate
    8.116;                    !- Vertex 4 Zcoordinate

BUILDINGSURFACE:DETAILED,
    F_16,                     !- Name
    Wall,                     !- Surface Type
    C_F,                      !- Construction Name
    Zone_0599100000306771,    !- Zone Name
    ,                         !- Space Name
    Outdoors,                 !- Outside Boundary Condition
    ,                         !- Outside Boundary Condition Object
    SunExposed,               !- Sun Exposure
    WindExposed,              !- Wind Exposure