!- Windows Line endings 

Version,
    24.2;                     !- Version Identifier

SimulationControl,
    No,                       !- Do Zone Sizing Calculation
    No,                       !- Do System Sizing Calculation
    No,                       !- Do Plant Sizing Calculation
    No,                       !- Run Simulation for Sizing Periods
    Yes,                      !- Run Simulation for Weather File Run Periods
    No,                       !- Do HVAC Sizing Simulation for Sizing Periods
    1;                        !- Maximum Number of HVAC Sizing Simulation Passes

BUILDING,
    Pand.0599100000750667,    !- Name
    0,                        !- North Axis
    City,                     !- Terrain
    0.04,                     !- Loads Convergence Tolerance Value
    0.4,                      !- Temperature Convergence Tolerance Value
    FullExterior,             !- Solar Distribution
    25,                       !- Maximum Number of Warmup Days
    1;                        !- Minimum Number of Warmup Days

Timestep,
    6;                        !- Number of Timesteps per Hour

Site:Location,
    Rotterdam.The.Hague.AP_ZH_NLD Design_Conditions,    !- Name
    51.96,                    !- Latitude
    4.45,                     !- Longitude
    1,                        !- Time Zone
    -4.5;                     !- Elevation

RunPeriod,
    Run Period 1,             !- Name
    1,                        !- Begin Month
    1,                        !- Begin Day of Month
    ,                         !- Begin Year
    12,                       !- End Month
    31,                       !- End Day of Month
    ,                         !- End Year
    ,                         !- Day of Week for Start Day
    Yes,                      !- Use Weather File Holidays and Special Days
    Yes,                      !- Use Weather File Daylight Saving Period
    No,                       !- Apply Weekend Holiday Rule
    Yes,                      !- Use Weather File Rain Indicators
    Yes,                      !- Use Weather File Snow Indicators
    No,                       !- Treat Weather as Actual
    Hour24;                   !- First Hour Interpolation Starting Values

RunPeriodControl:DaylightSavingTime,
    Last Sunday in March,     !- Start Date
    Last Sunday in October;    !- End Date

SITE:GROUNDTEMPERATURE:BUILDINGSURFACE,
    18,                       !- January Ground Temperature
    18,                       !- February Ground Temperature
    18,                       !- March Ground Temperature
    18,                       !- April Ground Temperature
    18,                       !- May Ground Temperature
    18,                       !- June Ground Temperature
    18,                       !- July Ground Temperature
    18,                       !- August Ground Temperature
    18,                       !- September Ground Temperature
    18,                       !- October Ground Temperature
    18,                       !- November Ground Temperature
    18;                       !- December Ground Temperature

SCHEDULETYPELIMITS,
    Temperature,              !- Name
    -100,                     !- Lower Limit Value
    100,                      !- Upper Limit Value
    CONTINUOUS,               !- Numeric Type
    Temperature;              !- Unit Type

SCHEDULETYPELIMITS,
    Fraction,                 !- Name
    0,                        !- Lower Limit Value
    1,                        !- Upper Limit Value
    CONTINUOUS,               !- Numeric Type
    Dimensionless;            !- Unit Type

SCHEDULETYPELIMITS,
    Control Type,             !- Name
    0,                        !- Lower Limit Value
    4,                        !- Upper Limit Value
    DISCRETE,                 !- Numeric Type
    Dimensionless;            !- Unit Type

SCHEDULE:COMPACT,
    HeatingSetpoint_Zone_0599100000750667,    !- Name
    Temperature,              !- Schedule Type Limits Name
    Through: 12/31,           !- Field 1
    For: AllDays,             !- Field 2
    Until: 24:00,             !- Field 3
    21.0;                     !- Field 4

SCHEDULE:COMPACT,
    CoolingSetpoint_Zone_0599100000750667,    !- Name
    Temperature,              !- Schedule Type Limits Name
    Through: 12/31,           !- Field 1
    For: AllDays,             !- Field 2
    Until: 24:00,             !- Field 3
    24.0;                     !- Field 4

SCHEDULE:COMPACT,
    DualSetpointControlType,    !- Name
    Control Type,             !- Schedule Type Limits Name
    Through: 12/31,           !- Field 1
    For: AllDays,             !- Field 2
    Until: 24:00,             !- Field 3
    4;                        !- Field 4

SCHEDULE:COMPACT,
    AlwaysOn,                 !- Name
    Fraction,                 !- Schedule Type Limits Name
    Through: 12/31,           !- Field 1
    For: AllDays,             !- Field 2
    Until: 24:00,             !- Field 3
    1.0;                      !- Field 4

MATERIAL,
    G.TC.1992-2005,           !- Name
    MediumSmooth,             !- Roughness
    0.15,                     !- Thickness
    0.06,                     !- Conductivity
    540,                      !- Density
    1210,                     !- Specific Heat
    0.9,                      !- Thermal Absorptance
    0.7,                      !- Solar Absorptance
    0.7;                      !- Visible Absorptance

MATERIAL,
    F.TC.1992-2005,           !- Name
    Rough,                    !- Roughness
    0.3,                      !- Thickness
    0.12,                     !- Conductivity
    1920,                     !- Density
    840,                      !- Specific Heat
    0.9,                      !- Thermal Absorptance
    0.7,                      !- Solar Absorptance
    0.7;                      !- Visible Absorptance

MATERIAL,
    R.TC.1992-2005,           !- Name
    MediumRough,              !- Roughness
    0.2,                      !- Thickness
    0.08,                     !- Conductivity
    1500,                     !- Density
    1000,                     !- Specific Heat
    0.9,                      !- Thermal Absorptance
    0.7,                      !- Solar Absorptance
    0.7;                      !- Visible Absorptance

WINDOWMATERIAL:SIMPLEGLAZINGSYSTEM,
    W.TC.1992-2005,           !- Name
    2.9,                      !- UFactor
    0.6,                      !- Solar Heat Gain Coefficient
    0.6;                      !- Visible Transmittance

CONSTRUCTION,
    C_G,                      !- Name
    G.TC.1992-2005;           !- Outside Layer

CONSTRUCTION,
    C_F,                      !- Name
    F.TC.1992-2005;           !- Outside Layer

CONSTRUCTION,
    C_R,                      !- Name
    R.TC.1992-2005;           !- Outside Layer

GlobalGeometryRules,
    UpperLeftCorner,          !- Starting Vertex Position
    Counterclockwise,         !- Vertex Entry Direction
    World,                    !- Coordinate System
    World,                    !- Daylighting Reference Point Coordinate System
    Relative;                 !- Rectangular Surface Coordinate System

ZONE,
    Zone_0599100000750667,    !- Name
    0,                        !- Direction of Relative North
    0,                        !- X Origin
    0,                        !- Y Origin
    0,                        !- Z Origin
    1,                        !- Type
    1,                        !- Multiplier
    Autocalculate,            !- Ceiling Height
    Autocalculate,            !- Volume
    autocalculate,            !- Floor Area
    ,                         !- Zone Inside Convection Algorithm
    ,                         !- Zone Outside Convection Algorithm
    Yes;                      !- Part of Total Floor Area

BUILDINGSURFACE:DETAILED,
    G_0,                      !- Name
    Floor,                    !- Surface Type
    C_G,                      !- Construction Name
    Zone_0599100000750667,    !- Zone Name
    ,                         !- Space Name
    Ground,                   !- Outside Boundary Condition
    ,                         !- Outside Boundary Condition Object
    SunExposed,               !- Sun Exposure
    WindExposed,              !- Wind Exposure
    0.5,                      !- View Factor to Ground
    67,                       !- Number of Vertices
    47.659,                   !- Vertex 1 Xcoordinate
    50.916,                   !- Vertex 1 Ycoordinate
    0.361,                    !- Vertex 1 Zcoordinate
    49.07,                    !- Vertex 2 Xcoordinate
    51.611,                   !- Vertex 2 Ycoordinate
    0.361,                    !- Vertex 2 Zcoordinate
    49.397,                   !- Vertex 3 Xcoordinate
    51.544,                   !- Vertex 3 Ycoordinate
    0.361,                    !- Vertex 3 Zcoordinate
    54.281,                   !- Vertex 4 Xcoordinate
    54.057,                   !- Vertex 4 Ycoordinate
    0.361,                    !- Vertex 4 Zcoordinate
    54.972,                   !- Vertex 5 Xcoordinate
    52.625,                   !- Vertex 5 Ycoordinate
    0.361,                    !- Vertex 5 Zcoordinate
    55.684,                   !- Vertex 6 Xcoordinate
    51.086,                   !- Vertex 6 Ycoordinate
    0.361,                    !- Vertex 6 Zcoordinate
    56.372,                   !- Vertex 7 Xcoordinate
    49.535,                   !- Vertex 7 Ycoordinate
    0.361,                    !- Vertex 7 Zcoordinate
    57.036,                   !- Vertex 8 Xcoordinate
    47.974,                   !- Vertex 8 Ycoordinate
    0.361,                    !- Vertex 8 Zcoordinate
    57.675,                   !- Vertex 9 Xcoordinate
    46.403,                   !- Vertex 9 Ycoordinate
    0.361,                    !- Vertex 9 Zcoordinate
    57.888,                   !- Vertex 10 Xcoordinate
    45.851,                   !- Vertex 10 Ycoordinate
    0.361,                    !- Vertex 10 Zcoordinate
    57.793,                   !- Vertex 11 Xcoordinate
    45.892,                   !- Vertex 11 Ycoordinate
    0.361,                    !- Vertex 11 Zcoordinate
    58.46,                    !- Vertex 12 Xcoordinate
    44.355,                   !- Vertex 12 Ycoordinate
    0.361,                    !- Vertex 12 Zcoordinate
    58.876,                   !- Vertex 13 Xcoordinate
    43.229,                   !- Vertex 13 Ycoordinate
    0.361,                    !- Vertex 13 Zcoordinate
    59.437,                   !- Vertex 14 Xcoordinate
    41.629,                   !- Vertex 14 Ycoordinate
    0.361,                    !- Vertex 14 Zcoordinate
    59.975,                   !- Vertex 15 Xcoordinate
    40.02,                    !- Vertex 15 Ycoordinate
    0.361,                    !- Vertex 15 Zcoordinate
    57.617,                   !- Vertex 16 Xcoordinate
    37.07,                    !- Vertex 16 Ycoordinate
    0.361,                    !- Vertex 16 Zcoordinate
    59.754,                   !- Vertex 17 Xcoordinate
    35.363,                   !- Vertex 17 Ycoordinate
    0.361,                    !- Vertex 17 Zcoordinate
    31.561,                   !- Vertex 18 Xcoordinate
    0,                        !- Vertex 18 Ycoordinate
    0.361,                    !- Vertex 18 Zcoordinate
    9.58,                     !- Vertex 19 Xcoordinate
    10.051,                   !- Vertex 19 Ycoordinate
    0.361,                    !- Vertex 19 Zcoordinate
    9.658,                    !- Vertex 20 Xcoordinate
    10.269,                   !- Vertex 20 Ycoordinate
    0.361,                    !- Vertex 20 Zcoordinate
    10.797,                   !- Vertex 21 Xcoordinate
    12.761,                   !- Vertex 21 Ycoordinate
    0.361,                    !- Vertex 21 Zcoordinate
    14.908,                   !- Vertex 22 Xcoordinate
    20.176,                   !- Vertex 22 Ycoordinate
    0.361,                    !- Vertex 22 Zcoordinate
    21.418,                   !- Vertex 23 Xcoordinate
    17.196,                   !- Vertex 23 Ycoordinate
    0.361,                    !- Vertex 23 Zcoordinate
    40.976,                   !- Vertex 24 Xcoordinate
    41.743,                   !- Vertex 24 Ycoordinate
    0.361,                    !- Vertex 24 Zcoordinate
    40.129,                   !- Vertex 25 Xcoordinate
    43.624,                   !- Vertex 25 Ycoordinate
    0.361,                    !- Vertex 25 Zcoordinate
    39.245,                   !- Vertex 26 Xcoordinate
    45.487,                   !- Vertex 26 Ycoordinate
    0.361,                    !- Vertex 26 Zcoordinate
    38.325,                   !- Vertex 27 Xcoordinate
    47.332,                   !- Vertex 27 Ycoordinate
    0.361,                    !- Vertex 27 Zcoordinate
    37.368,                   !- Vertex 28 Xcoordinate
    49.16,                    !- Vertex 28 Ycoordinate
    0.361,                    !- Vertex 28 Zcoordinate
    36.877,                   !- Vertex 29 Xcoordinate
    50.066,                   !- Vertex 29 Ycoordinate
    0.361,                    !- Vertex 29 Zcoordinate
    33.912,                   !- Vertex 30 Xcoordinate
    54.962,                   !- Vertex 30 Ycoordinate
    0.361,                    !- Vertex 30 Zcoordinate
    30.623,                   !- Vertex 31 Xcoordinate
    59.646,                   !- Vertex 31 Ycoordinate
    0.361,                    !- Vertex 31 Zcoordinate
    27.028,                   !- Vertex 32 Xcoordinate
    64.099,                   !- Vertex 32 Ycoordinate
    0.361,                    !- Vertex 32 Zcoordinate
    23.141,                   !- Vertex 33 Xcoordinate
    68.301,                   !- Vertex 33 Ycoordinate
    0.361,                    !- Vertex 33 Zcoordinate
    18.981,                   !- Vertex 34 Xcoordinate
    72.233,                   !- Vertex 34 Ycoordinate
    0.361,                    !- Vertex 34 Zcoordinate
    14.568,                   !- Vertex 35 Xcoordinate
    75.874,                   !- Vertex 35 Ycoordinate
    0.361,                    !- Vertex 35 Zcoordinate
    9.917,                    !- Vertex 36 Xcoordinate
    79.212,                   !- Vertex 36 Ycoordinate
    0.361,                    !- Vertex 36 Zcoordinate
    5.055,                    !- Vertex 37 Xcoordinate
    82.229,                   !- Vertex 37 Ycoordinate
    0.361,                    !- Vertex 37 Zcoordinate
    0,                        !- Vertex 38 Xcoordinate
    84.915,                   !- Vertex 38 Ycoordinate
    0.361,                    !- Vertex 38 Zcoordinate
    7.502,                    !- Vertex 39 Xcoordinate
    100.153,                  !- Vertex 39 Ycoordinate
    0.361,                    !- Vertex 39 Zcoordinate
    9.795,                    !- Vertex 40 Xcoordinate
    98.998,                   !- Vertex 40 Ycoordinate
    0.361,                    !- Vertex 40 Zcoordinate
    13.087,                   !- Vertex 41 Xcoordinate
    97.21,                    !- Vertex 41 Ycoordinate
    0.361,                    !- Vertex 41 Zcoordinate
    15.721,                   !- Vertex 42 Xcoordinate
    95.665,                   !- Vertex 42 Ycoordinate
    0.361,                    !- Vertex 42 Zcoordinate
    16.702,                   !- Vertex 43 Xcoordinate
    95.061,                   !- Vertex 43 Ycoordinate
    0.361,                    !- Vertex 43 Zcoordinate
    19.103,                   !- Vertex 44 Xcoordinate
    93.52,                    !- Vertex 44 Ycoordinate
    0.361,                    !- Vertex 44 Zcoordinate
    20.33,                    !- Vertex 45 Xcoordinate
    92.695,                   !- Vertex 45 Ycoordinate
    0.361,                    !- Vertex 45 Zcoordinate
    23.053,                   !- Vertex 46 Xcoordinate
    90.769,                   !- Vertex 46 Ycoordinate
    0.361,                    !- Vertex 46 Zcoordinate
    24.294,                   !- Vertex 47 Xcoordinate
    89.847,                   !- Vertex 47 Ycoordinate
    0.361,                    !- Vertex 47 Zcoordinate
    25.586,                   !- Vertex 48 Xcoordinate
    88.856,                   !- Vertex 48 Ycoordinate
    0.361,                    !- Vertex 48 Zcoordinate
    28.689,                   !- Vertex 49 Xcoordinate
    86.332,                   !- Vertex 49 Ycoordinate
    0.361,                    !- Vertex 49 Zcoordinate
    30.454,                   !- Vertex 50 Xcoordinate
    84.801,                   !- Vertex 50 Ycoordinate
    0.361,                    !- Vertex 50 Zcoordinate
    32.514,                   !- Vertex 51 Xcoordinate
    82.92,                    !- Vertex 51 Ycoordinate
    0.361,                    !- Vertex 51 Zcoordinate
    33.61,                    !- Vertex 52 Xcoordinate
    81.877,                   !- Vertex 52 Ycoordinate
    0.361,                    !- Vertex 52 Zcoordinate
    35.587,                   !- Vertex 53 Xcoordinate
    79.91,                    !- Vertex 53 Ycoordinate
    0.361,                    !- Vertex 53 Zcoordinate
    37.568,                   !- Vertex 54 Xcoordinate
    77.83,                    !- Vertex 54 Ycoordinate
    0.361,                    !- Vertex 54 Zcoordinate
    39.104,                   !- Vertex 55 Xcoordinate
    76.132,                   !- Vertex 55 Ycoordinate
    0.361,                    !- Vertex 55 Zcoordinate
    40.935,                   !- Vertex 56 Xcoordinate
    74.004,                   !- Vertex 56 Ycoordinate
    0.361,                    !- Vertex 56 Zcoordinate
    41.903,                   !- Vertex 57 Xcoordinate
    72.831,                   !- Vertex 57 Ycoordinate
    0.361,                    !- Vertex 57 Zcoordinate
    42.913,                   !- Vertex 58 Xcoordinate
    71.566,                   !- Vertex 58 Ycoordinate
    0.361,                    !- Vertex 58 Zcoordinate
    43.619,                   !- Vertex 59 Xcoordinate
    70.656,                   !- Vertex 59 Ycoordinate
    0.361,                    !- Vertex 59 Zcoordinate
    45.303,                   !- Vertex 60 Xcoordinate
    68.399,                   !- Vertex 60 Ycoordinate
    0.361,                    !- Vertex 60 Zcoordinate
    46.195,                   !- Vertex 61 Xcoordinate
    67.149,                   !- Vertex 61 Ycoordinate
    0.361,                    !- Vertex 61 Zcoordinate
    46.674,                   !- Vertex 62 Xcoordinate
    66.458,                   !- Vertex 62 Ycoordinate
    0.361,                    !- Vertex 62 Zcoordinate
    48.211,                   !- Vertex 63 Xcoordinate
    64.167,                   !- Vertex 63 Ycoordinate
    0.361,                    !- Vertex 63 Zcoordinate
    49.858,                   !- Vertex 64 Xcoordinate
    61.55,                    !- Vertex 64 Ycoordinate
    0.361,                    !- Vertex 64 Zcoordinate
    50.866,                   !- Vertex 65 Xcoordinate
    59.854,                   !- Vertex 65 Ycoordinate
    0.361,                    !- Vertex 65 Zcoordinate
    51.841,                   !- Vertex 66 Xcoordinate
    58.14,                    !- Vertex 66 Ycoordinate
    0.361,                    !- Vertex 66 Zcoordinate
    43.874,                   !- Vertex 67 Xcoordinate
    53.67,                    !- Vertex 67 Ycoordinate
    0.361;                    !- Vertex 67 Zcoordinate

BUILDINGSURFACE:DETAILED,
    F_1,                      !- Name
    Wall,                     !- Surface Type
    C_F,                      !- Construction Name
    Zone_0599100000750667,    !- Zone Name
    ,                         !- Space Name
    Outdoors,                 !- Outside Boundary Condition
    ,                         !- Outside Boundary Condition Object
    SunExposed,               !- Sun Exposure
    WindExposed,              !- Wind Exposure
    0.5,                      !- View Factor to Ground
    4,                        !- Number of Vertices
    9.917,                    !- Vertex 1 Xcoordinate
    79.212,                   !- Vertex 1 Ycoordinate
    14.93,                    !- Vertex 1 Zcoordinate
    9.917,                    !- Vertex 2 Xcoordinate
    79.212,                   !- Vertex 2 Ycoordinate
    0.361,                    !- Vertex 2 Zcoordinate
    14.568,                   !- Vertex 3 Xcoordinate
    75.874,                   !- Vertex 3 Ycoordinate
    0.361,                    !- Vertex 3 Zcoordinate
    14.568,                   !- Vertex 4 Xcoordinate
    75.874,                   !- Vertex 4 Ycoordinate
    14.93;                    !- Vertex 4 Zcoordinate

BUILDINGSURFACE:DETAILED,
    F_2,                      !- Name
    Wall,                     !- Surface Type
    C_F,                      !- Construction Name
    Zone_0599100000750667,    !- Zone Name
    ,                         !- Space Name
    Outdoors,                 !- Outside Boundary Condition
    ,                         !- Outside Boundary Condition Object
    SunExposed,               !- Sun Exposure
    WindExposed,              !- Wind Exposure
    0.5,                      !- View Factor to Ground
    4,                        !- Number of Vertices
    13.087,                   !- Vertex 1 Xcoordinate
    97.21,                    !- Vertex 1 Ycoordinate
    14.93,                    !- Vertex 1 Zcoordinate
    13.087,                   !- Vertex 2 Xcoordinate
    97.21,                    !- Vertex 2 Ycoordinate
    0.361,                    !- Vertex 2 Zcoordinate
    9.795,                    !- Vertex 3 Xcoordinate
    98.998,                   !- Vertex 3 Ycoordinate
    0.361,                    !- Vertex 3 Zcoordinate
    9.795,                    !- Vertex 4 Xcoordinate
    98.998,                   !- Vertex 4 Ycoordinate
    14.93;                    !- Vertex 4 Zcoordinate

BUILDINGSURFACE:DETAILED,
    F_3,                      !- Name
    Wall,                     !- Surface Type
    C_F,                      !- Construction Name
    Zone_0599100000750667,    !- Zone Name
    ,                         !- Space Name
    Outdoors,                 !- Outside Boundary Condition
    ,                         !- Outside Boundary Condition Object
    SunExposed,               !- Sun Exposure
    WindExposed,              !- Wind Exposure
    0.5,                      !- View Factor to Ground
    4,                        !- Number of Vertices
    46.674,                   !- Vertex 1 Xcoordinate
    66.458,                   !- Vertex 1 Ycoordinate
    14.93,                    !- Vertex 1 Zcoordinate
    46.674,                   !- Vertex 2 Xcoordinate
    66.458,                   !- Vertex 2 Ycoordinate
    0.361,                    !- Vertex 2 Zcoordinate
    46.195,                   !- Vertex 3 Xcoordinate
    67.149,                   !- Vertex 3 Ycoordinate
    0.361,                    !- Vertex 3 Zcoordinate
    46.195,                   !- Vertex 4 Xcoordinate
    67.149,                   !- Vertex 4 Ycoordinate
    14.93;                    !- Vertex 4 Zcoordinate

BUILDINGSURFACE:DETAILED,
    F_4,                      !- Name
    Wall,                     !- Surface Type
    C_F,                      !- Construction Name
    Zone_0599100000750667,    !- Zone Name
    ,                         !- Space Name
    Outdoors,                 !- Outside Boundary Condition
    ,                         !- Outside Boundary Condition Object
    SunExposed,               !- Sun Exposure
    WindExposed,              !- Wind Exposure
    0.5,                      !- View Factor to Ground
    4,                        !- Number of Vertices
    41.903,                   !- Vertex 1 Xcoordinate
    72.831,                   !- Vertex 1 Ycoordinate
    14.93,                    !- Vertex 1 Zcoordinate
    41.903,                   !- Vertex 2 Xcoordinate
    72.831,                   !- Vertex 2 Ycoordinate
    0.361,                    !- Vertex 2 Zcoordinate
    40.935,                   !- Vertex 3 Xcoordinate
    74.004,                   !- Vertex 3 Ycoordinate
    0.361,                    !- Vertex 3 Zcoordinate
    40.935,                   !- Vertex 4 Xcoordinate
    74.004,                   !- Vertex 4 Ycoordinate
    14.93;                    !- Vertex 4 Zcoordinate

BUILDINGSURFACE:DETAILED,
    F_5,                      !- Name
    Wall,                     !- Surface Type
    C_F,                      !- Construction Name
    Zone_0599100000750667,    !- Zone Name
    ,                         !- Space Name
    Outdoors,                 !- Outside Boundary Condition
    ,                         !- Outside Boundary Condition Object
    SunExposed,               !- Sun Exposure
    WindExposed,              !- Wind Exposure
    0.5,                      !- View Factor to Ground
    4,                        !- Number of Vertices
    7.502,                    !- Vertex 1 Xcoordinate
    100.153,                  !- Vertex 1 Ycoordinate
    14.93,                    !- Vertex 1 Zcoordinate
    7.502,                    !- Vertex 2 Xcoordinate
    100.153,                  !- Vertex 2 Ycoordinate
    0.361,                    !- Vertex 2 Zcoordinate
    0,                        !- Vertex 3 Xcoordinate
    84.915,                   !- Vertex 3 Ycoordinate
    0.361,                    !- Vertex 3 Zcoordinate
    0,                        !- Vertex 4 Xcoordinate
    84.915,                   !- Vertex 4 Ycoordinate
    14.93;                    !- Vertex 4 Zcoordinate

BUILDINGSURFACE:DETAILED,
    F_6,                      !- Name
    Wall,                     !- Surface Type
    C_F,                      !- Construction Name
    Zone_0599100000750667,    !- Zone Name
    ,                         !- Space Name
    Outdoors,                 !- Outside Boundary Condition
    ,                         !- Outside Boundary Condition Object
    SunExposed,               !- Sun Exposure
    WindExposed,              !- Wind Exposure
    0.5,                      !- View Factor to Ground
    4,                        !- Number of Vertices
    0,                        !- Vertex 1 Xcoordinate
    84.915,                   !- Vertex 1 Ycoordinate
    14.93,                    !- Vertex 1 Zcoordinate
    0,                        !- Vertex 2 Xcoordinate
    84.915,                   !- Vertex 2 Ycoordinate
    0.361,                    !- Vertex 2 Zcoordinate
    5.055,                    !- Vertex 3 Xcoordinate
    82.229,                   !- Vertex 3 Ycoordinate
    0.361,                    !- Vertex 3 Zcoordinate
    5.055,                    !- Vertex 4 Xcoordinate
    82.229,                   !- Vertex 4 Ycoordinate
    14.93;                    !- Vertex 4 Zcoordinate

BUILDINGSURFACE:DETAILED,
    F_7,                      !- Name
    Wall,                     !- Surface Type
    C_F,                      !- Construction Name
    Zone_0599100000750667,    !- Zone Name
    ,                         !- Space Name
    Outdoors,                 !- Outside Boundary Condition
    ,                         !- Outside Boundary Condition Object
    SunExposed,               !- Sun Exposure
    WindExposed,              !- Wind Exposure
    0.5,                      !- View Factor to Ground
    4,                        !- Number of Vertices
    32.514,                   !- Vertex 1 Xcoordinate
    82.92,                    !- Vertex 1 Ycoordinate
    14.93,                    !- Vertex 1 Zcoordinate
    32.514,                   !- Vertex 2 Xcoordinate
    82.92,                    !- Vertex 2 Ycoordinate
    0.361,                    !- Vertex 2 Zcoordinate
    30.454,                   !- Vertex 3 Xcoordinate
    84.801,                   !- Vertex 3 Ycoordinate
    0.361,                    !- Vertex 3 Zcoordinate
    30.454,                   !- Vertex 4 Xcoordinate
    84.801,                   !- Vertex 4 Ycoordinate
    14.93;                    !- Vertex 4 Zcoordinate

BUILDINGSURFACE:DETAILED,
    F_8,                      !- Name
    Wall,                     !- Surface Type
    C_F,                      !- Construction Name
    Zone_0599100000750667,    !- Zone Name
    ,                         !- Space Name
    Outdoors,                 !- Outside Boundary Condition
    ,                         !- Outside Boundary Condition Object
    SunExposed,               !- Sun Exposure
    WindExposed,              !- Wind Exposure
    0.5,                      !- View Factor to Ground
    4,                        !- Number of Vertices
    5.055,                    !- Vertex 1 Xcoordinate
    82.229,                   !- Vertex 1 Ycoordinate
    14.93,                    !- Vertex 1 Zcoordinate
    5.055,                    !- Vertex 2 Xcoordinate
    82.229,                   !- Vertex 2 Ycoordinate
    0.361,                    !- Vertex 2 Zcoordinate
    9.917,                    !- Vertex 3 Xcoordinate
    79.212,                   !- Vertex 3 Ycoordinate
    0.361,                    !- Vertex 3 Zcoordinate
    9.917,                    !- Vertex 4 Xcoordinate
    79.212,                   !- Vertex 4 Ycoordinate
    14.93;                    !- Vertex 4 Zcoordinate

BUILDINGSURFACE:DETAILED,
    F_9,                      !- Name
    Wall,                     !- Surface Type
    C_F,                      !- Construction Name
    Zone_0599100000750667,    !- Zone Name
    ,                         !- Space Name
    Outdoors,                 !- Outside Boundary Condition
    ,                         !- Outside Boundary Condition Object
    SunExposed,               !- Sun Exposure
    WindExposed,              !- Wind Exposure
    0.5,                      !- View Factor to Ground
    4,                        !- Number of Vertices
    37.368,                   !- Vertex 1 Xcoordinate
    49.16,                    !- Vertex 1 Ycoordinate
    14.93,                    !- Vertex 1 Zcoordinate
    37.368,                   !- Vertex 2 Xcoordinate