!- Windows Line endings 

Version,
    24.2;                     !- Version Identifier

SimulationControl,
    No,                       !- Do Zone Sizing Calculation
    No,                       !- Do System Sizing Calculation
    No,                       !- Do Plant Sizing Calculation
    No,                       !- Run Simulation for Sizing Periods
    Yes,                      !- Run Simulation for Weather File Run Periods
    No,                       !- Do HVAC Sizing Simulation for Sizing Periods
    1;                        !- Maximum Number of HVAC Sizing Simulation Passes

BUILDING,
    Pand.0599100000095669,    !- Name
    0,                        !- North Axis
    City,                     !- Terrain
    0.04,                     !- Loads Convergence Tolerance Value
    0.4,                      !- Temperature Convergence Tolerance Value
    FullExterior,             !- Solar Distribution
    25,                       !- Maximum Number of Warmup Days
    1;                        !- Minimum Number of Warmup Days

Timestep,
    6;                        !- Number of Timesteps per Hour

Site:Location,
    Rotterdam.The.Hague.AP_ZH_NLD Design_Conditions,    !- Name
    51.96,                    !- Latitude
    4.45,                     !- Longitude
    1,                        !- Time Zone
    -4.5;                     !- Elevation

RunPeriod,
    Run Period 1,             !- Name
    1,                        !- Begin Month
    1,                        !- Begin Day of Month
    ,                         !- Begin Year
    12,                       !- End Month
    31,                       !- End Day of Month
    ,                         !- End Year
    ,                         !- Day of Week for Start Day
    Yes,                      !- Use Weather File Holidays and Special Days
    Yes,                      !- Use Weather File Daylight Saving Period
    No,                       !- Apply Weekend Holiday Rule
    Yes,                      !- Use Weather File Rain Indicators
    Yes,                      !- Use Weather File Snow Indicators
    No,                       !- Treat Weather as Actual
    Hour24;                   !- First Hour Interpolation Starting Values

RunPeriodControl:DaylightSavingTime,
    Last Sunday in March,     !- Start Date
    Last Sunday in October;    !- End Date

SITE:GROUNDTEMPERATURE:BUILDINGSURFACE,
    18,                       !- January Ground Temperature
    18,                       !- February Ground Temperature
    18,                       !- March Ground Temperature
    18,                       !- April Ground Temperature
    18,                       !- May Ground Temperature
    18,                       !- June Ground Temperature
    18,                       !- July Ground Temperature
    18,                       !- August Ground Temperature
    18,                       !- September Ground Temperature
    18,                       !- October Ground Temperature
    18,                       !- November Ground Temperature
    18;                       !- December Ground Temperature

SCHEDULETYPELIMITS,
    Temperature,              !- Name
    -100,                     !- Lower Limit Value
    100,                      !- Upper Limit Value
    CONTINUOUS,               !- Numeric Type
    Temperature;              !- Unit Type

SCHEDULETYPELIMITS,
    Fraction,                 !- Name
    0,                        !- Lower Limit Value
    1,                        !- Upper Limit Value
    CONTINUOUS,               !- Numeric Type
    Dimensionless;            !- Unit Type

SCHEDULETYPELIMITS,
    Control Type,             !- Name
    0,                        !- Lower Limit Value
    4,                        !- Upper Limit Value
    DISCRETE,                 !- Numeric Type
    Dimensionless;            !- Unit Type

SCHEDULE:COMPACT,
    HeatingSetpoint_Zone_0599100000095669,    !- Name
    Temperature,              !- Schedule Type Limits Name
    Through: 12/31,           !- Field 1
    For: AllDays,             !- Field 2
    Until: 24:00,             !- Field 3
    21.0;                     !- Field 4

SCHEDULE:COMPACT,
    CoolingSetpoint_Zone_0599100000095669,    !- Name
    Temperature,              !- Schedule Type Limits Name
    Through: 12/31,           !- Field 1
    For: AllDays,             !- Field 2
    Until: 24:00,             !- Field 3
    24.0;                     !- Field 4

SCHEDULE:COMPACT,
    DualSetpointControlType,    !- Name
    Control Type,             !- Schedule Type Limits Name
    Through: 12/31,           !- Field 1
    For: AllDays,             !- Field 2
    Until: 24:00,             !- Field 3
    4;                        !- Field 4

SCHEDULE:COMPACT,
    AlwaysOn,                 !- Name
    Fraction,                 !- Schedule Type Limits Name
    Through: 12/31,           !- Field 1
    For: AllDays,             !- Field 2
    Until: 24:00,             !- Field 3
    1.0;                      !- Field 4

MATERIAL,
    G.TC.1992-2005,           !- Name
    MediumSmooth,             !- Roughness
    0.15,                     !- Thickness
    0.06,                     !- Conductivity
    540,                      !- Density
    1210,                     !- Specific Heat
    0.9,                      !- Thermal Absorptance
    0.7,                      !- Solar Absorptance
    0.7;                      !- Visible Absorptance

MATERIAL,
    F.TC.1992-2005,           !- Name
    Rough,                    !- Roughness
    0.3,                      !- Thickness
    0.12,                     !- Conductivity
    1920,                     !- Density
    840,                      !- Specific Heat
    0.9,                      !- Thermal Absorptance
    0.7,                      !- Solar Absorptance
    0.7;                      !- Visible Absorptance

MATERIAL,
    R.TC.1992-2005,           !- Name
    MediumRough,              !- Roughness
    0.2,                      !- Thickness
    0.08,                     !- Conductivity
    1500,                     !- Density
    1000,                     !- Specific Heat
    0.9,                      !- Thermal Absorptance
    0.7,                      !- Solar Absorptance
    0.7;                      !- Visible Absorptance

WINDOWMATERIAL:SIMPLEGLAZINGSYSTEM,
    W.TC.1992-2005,           !- Name
    2.9,                      !- UFactor
    0.6,                      !- Solar Heat Gain Coefficient
    0.6;                      !- Visible Transmittance

CONSTRUCTION,
    C_G,                      !- Name
    G.TC.1992-2005;           !- Outside Layer

CONSTRUCTION,
    C_F,                      !- Name
    F.TC.1992-2005;           !- Outside Layer

CONSTRUCTION,
    C_R,                      !- Name
    R.TC.1992-2005;           !- Outside Layer

GlobalGeometryRules,
    UpperLeftCorner,          !- Starting Vertex Position
    Counterclockwise,         !- Vertex Entry Direction
    World,                    !- Coordinate System
    World,                    !- Daylighting Reference Point Coordinate System
    Relative;                 !- Rectangular Surface Coordinate System

ZONE,
    Zone_0599100000095669,    !- Name
    0,                        !- Direction of Relative North
    0,                        !- X Origin
    0,                        !- Y Origin
    0,                        !- Z Origin
    1,                        !- Type
    1,                        !- Multiplier
    Autocalculate,            !- Ceiling Height
    Autocalculate,            !- Volume
    autocalculate,            !- Floor Area
    ,                         !- Zone Inside Convection Algorithm
    ,                         !- Zone Outside Convection Algorithm
    Yes;                      !- Part of Total Floor Area

BUILDINGSURFACE:DETAILED,
    G_0,                      !- Name
    Floor,                    !- Surface Type
    C_G,                      !- Construction Name
    Zone_0599100000095669,    !- Zone Name
    ,                         !- Space Name
    Ground,                   !- Outside Boundary Condition
    ,                         !- Outside Boundary Condition Object
    SunExposed,               !- Sun Exposure
    WindExposed,              !- Wind Exposure
    0.5,                      !- View Factor to Ground
    26,                       !- Number of Vertices
    5.068,                    !- Vertex 1 Xcoordinate
    9.563,                    !- Vertex 1 Ycoordinate
    0,                        !- Vertex 1 Zcoordinate
    5.921,                    !- Vertex 2 Xcoordinate
    10.179,                   !- Vertex 2 Ycoordinate
    0,                        !- Vertex 2 Zcoordinate
    5.939,                    !- Vertex 3 Xcoordinate
    10.304,                   !- Vertex 3 Ycoordinate
    0,                        !- Vertex 3 Zcoordinate
    8.164,                    !- Vertex 4 Xcoordinate
    11.974,                   !- Vertex 4 Ycoordinate
    0,                        !- Vertex 4 Zcoordinate
    8.371,                    !- Vertex 5 Xcoordinate
    12.029,                   !- Vertex 5 Ycoordinate
    0,                        !- Vertex 5 Zcoordinate
    8.597,                    !- Vertex 6 Xcoordinate
    12.057,                   !- Vertex 6 Ycoordinate
    0,                        !- Vertex 6 Zcoordinate
    8.834,                    !- Vertex 7 Xcoordinate
    12.047,                   !- Vertex 7 Ycoordinate
    0,                        !- Vertex 7 Zcoordinate
    9.073,                    !- Vertex 8 Xcoordinate
    12,                       !- Vertex 8 Ycoordinate
    0,                        !- Vertex 8 Zcoordinate
    9.308,                    !- Vertex 9 Xcoordinate
    11.911,                   !- Vertex 9 Ycoordinate
    0,                        !- Vertex 9 Zcoordinate
    9.524,                    !- Vertex 10 Xcoordinate
    11.784,                   !- Vertex 10 Ycoordinate
    0,                        !- Vertex 10 Zcoordinate
    9.717,                    !- Vertex 11 Xcoordinate
    11.624,                   !- Vertex 11 Ycoordinate
    0,                        !- Vertex 11 Zcoordinate
    9.877,                    !- Vertex 12 Xcoordinate
    11.437,                   !- Vertex 12 Ycoordinate
    0,                        !- Vertex 12 Zcoordinate
    10.002,                   !- Vertex 13 Xcoordinate
    11.236,                   !- Vertex 13 Ycoordinate
    0,                        !- Vertex 13 Zcoordinate
    10.088,                   !- Vertex 14 Xcoordinate
    11.026,                   !- Vertex 14 Ycoordinate
    0,                        !- Vertex 14 Zcoordinate
    10.142,                   !- Vertex 15 Xcoordinate
    10.818,                   !- Vertex 15 Ycoordinate
    0,                        !- Vertex 15 Zcoordinate
    10.554,                   !- Vertex 16 Xcoordinate
    7.028,                    !- Vertex 16 Ycoordinate
    0,                        !- Vertex 16 Zcoordinate
    10.212,                   !- Vertex 17 Xcoordinate
    6.998,                    !- Vertex 17 Ycoordinate
    0,                        !- Vertex 17 Zcoordinate
    10.242,                   !- Vertex 18 Xcoordinate
    6.679,                    !- Vertex 18 Ycoordinate
    0,                        !- Vertex 18 Zcoordinate
    9.842,                    !- Vertex 19 Xcoordinate
    6.645,                    !- Vertex 19 Ycoordinate
    0,                        !- Vertex 19 Zcoordinate
    10.53,                    !- Vertex 20 Xcoordinate
    1.388,                    !- Vertex 20 Ycoordinate
    0,                        !- Vertex 20 Zcoordinate
    1.621,                    !- Vertex 21 Xcoordinate
    0.109,                    !- Vertex 21 Ycoordinate
    0,                        !- Vertex 21 Zcoordinate
    0.78,                     !- Vertex 22 Xcoordinate
    0,                        !- Vertex 22 Ycoordinate
    0,                        !- Vertex 22 Zcoordinate
    0.461,                    !- Vertex 23 Xcoordinate
    2.469,                    !- Vertex 23 Ycoordinate
    0,                        !- Vertex 23 Zcoordinate
    0.102,                    !- Vertex 24 Xcoordinate
    4.924,                    !- Vertex 24 Ycoordinate
    0,                        !- Vertex 24 Zcoordinate
    0.568,                    !- Vertex 25 Xcoordinate
    5.285,                    !- Vertex 25 Ycoordinate
    0,                        !- Vertex 25 Zcoordinate
    0.48,                     !- Vertex 26 Xcoordinate
    5.987,                    !- Vertex 26 Ycoordinate
    0;                        !- Vertex 26 Zcoordinate

BUILDINGSURFACE:DETAILED,
    F_1,                      !- Name
    Wall,                     !- Surface Type
    C_F,                      !- Construction Name
    Zone_0599100000095669,    !- Zone Name
    ,                         !- Space Name
    Outdoors,                 !- Outside Boundary Condition
    ,                         !- Outside Boundary Condition Object
    SunExposed,               !- Sun Exposure
    WindExposed,              !- Wind Exposure
    0.5,                      !- View Factor to Ground
    4,                        !- Number of Vertices
    10.088,                   !- Vertex 1 Xcoordinate
    11.026,                   !- Vertex 1 Ycoordinate
    8.934,                    !- Vertex 1 Zcoordinate
    10.088,                   !- Vertex 2 Xcoordinate
    11.026,                   !- Vertex 2 Ycoordinate
    0,                        !- Vertex 2 Zcoordinate
    10.002,                   !- Vertex 3 Xcoordinate
    11.236,                   !- Vertex 3 Ycoordinate
    0,                        !- Vertex 3 Zcoordinate
    10.002,                   !- Vertex 4 Xcoordinate
    11.236,                   !- Vertex 4 Ycoordinate
    8.934;                    !- Vertex 4 Zcoordinate

BUILDINGSURFACE:DETAILED,
    F_2,                      !- Name
    Wall,                     !- Surface Type
    C_F,                      !- Construction Name
    Zone_0599100000095669,    !- Zone Name
    ,                         !- Space Name
    Outdoors,                 !- Outside Boundary Condition
    ,                         !- Outside Boundary Condition Object
    SunExposed,               !- Sun Exposure
    WindExposed,              !- Wind Exposure
    0.5,                      !- View Factor to Ground
    4,                        !- Number of Vertices
    10.002,                   !- Vertex 1 Xcoordinate
    11.236,                   !- Vertex 1 Ycoordinate
    8.934,                    !- Vertex 1 Zcoordinate
    10.002,                   !- Vertex 2 Xcoordinate
    11.236,                   !- Vertex 2 Ycoordinate
    0,                        !- Vertex 2 Zcoordinate
    9.877,                    !- Vertex 3 Xcoordinate
    11.437,                   !- Vertex 3 Ycoordinate
    0,                        !- Vertex 3 Zcoordinate
    9.877,                    !- Vertex 4 Xcoordinate
    11.437,                   !- Vertex 4 Ycoordinate
    8.934;                    !- Vertex 4 Zcoordinate

BUILDINGSURFACE:DETAILED,
    F_3,                      !- Name
    Wall,                     !- Surface Type
    C_F,                      !- Construction Name
    Zone_0599100000095669,    !- Zone Name
    ,                         !- Space Name
    Outdoors,                 !- Outside Boundary Condition
    ,                         !- Outside Boundary Condition Object
    SunExposed,               !- Sun Exposure
    WindExposed,              !- Wind Exposure
    0.5,                      !- View Factor to Ground
    4,                        !- Number of Vertices
    9.717,                    !- Vertex 1 Xcoordinate
    11.624,                   !- Vertex 1 Ycoordinate
    8.934,                    !- Vertex 1 Zcoordinate
    9.717,                    !- Vertex 2 Xcoordinate
    11.624,                   !- Vertex 2 Ycoordinate
    0,                        !- Vertex 2 Zcoordinate
    9.524,                    !- Vertex 3 Xcoordinate
    11.784,                   !- Vertex 3 Ycoordinate
    0,                        !- Vertex 3 Zcoordinate
    9.524,                    !- Vertex 4 Xcoordinate
    11.784,                   !- Vertex 4 Ycoordinate
    8.934;                    !- Vertex 4 Zcoordinate

BUILDINGSURFACE:DETAILED,
    F_4,                      !- Name
    Wall,                     !- Surface Type
    C_F,                      !- Construction Name
    Zone_0599100000095669,    !- Zone Name
    ,                         !- Space Name
    Outdoors,                 !- Outside Boundary Condition
    ,                         !- Outside Boundary Condition Object
    SunExposed,               !- Sun Exposure
    WindExposed,              !- Wind Exposure
    0.5,                      !- View Factor to Ground
    4,                        !- Number of Vertices
    9.877,                    !- Vertex 1 Xcoordinate
    11.437,                   !- Vertex 1 Ycoordinate
    8.934,                    !- Vertex 1 Zcoordinate
    9.877,                    !- Vertex 2 Xcoordinate
    11.437,                   !- Vertex 2 Ycoordinate
    0,                        !- Vertex 2 Zcoordinate
    9.717,                    !- Vertex 3 Xcoordinate
    11.624,                   !- Vertex 3 Ycoordinate
    0,                        !- Vertex 3 Zcoordinate
    9.717,                    !- Vertex 4 Xcoordinate
    11.624,                   !- Vertex 4 Ycoordinate
    8.934;                    !- Vertex 4 Zcoordinate

BUILDINGSURFACE:DETAILED,
    F_5,                      !- Name
    Wall,                     !- Surface Type
    C_F,                      !- Construction Name
    Zone_0599100000095669,    !- Zone Name
    ,                         !- Space Name
    Outdoors,                 !- Outside Boundary Condition
    ,                         !- Outside Boundary Condition Object
    SunExposed,               !- Sun Exposure
    WindExposed,              !- Wind Exposure
    0.5,                      !- View Factor to Ground
    4,                        !- Number of Vertices
    9.524,                    !- Vertex 1 Xcoordinate
    11.784,                   !- Vertex 1 Ycoordinate
    8.934,                    !- Vertex 1 Zcoordinate
    9.524,                    !- Vertex 2 Xcoordinate
    11.784,                   !- Vertex 2 Ycoordinate
    0,                        !- Vertex 2 Zcoordinate
    9.308,                    !- Vertex 3 Xcoordinate
    11.911,                   !- Vertex 3 Ycoordinate
    0,                        !- Vertex 3 Zcoordinate
    9.308,                    !- Vertex 4 Xcoordinate
    11.911,                   !- Vertex 4 Ycoordinate
    8.934;                    !- Vertex 4 Zcoordinate

BUILDINGSURFACE:DETAILED,
    F_6,                      !- Name
    Wall,                     !- Surface Type
    C_F,                      !- Construction Name
    Zone_0599100000095669,    !- Zone Name
    ,                         !- Space Name
    Outdoors,                 !- Outside Boundary Condition
    ,                         !- Outside Boundary Condition Object
    SunExposed,               !- Sun Exposure
    WindExposed,              !- Wind Exposure
    0.5,                      !- View Factor to Ground
    4,                        !- Number of Vertices
    9.308,                    !- Vertex 1 Xcoordinate
    11.911,                   !- Vertex 1 Ycoordinate
    8.934,                    !- Vertex 1 Zcoordinate
    9.308,                    !- Vertex 2 Xcoordinate
    11.911,                   !- Vertex 2 Ycoordinate
    0,                        !- Vertex 2 Zcoordinate
    9.073,                    !- Vertex 3 Xcoordinate
    12,                       !- Vertex 3 Ycoordinate
    0,                        !- Vertex 3 Zcoordinate
    9.073,                    !- Vertex 4 Xcoordinate
    12,                       !- Vertex 4 Ycoordinate
    8.934;                    !- Vertex 4 Zcoordinate

BUILDINGSURFACE:DETAILED,
    F_7,                      !- Name
    Wall,                     !- Surface Type
    C_F,                      !- Construction Name
    Zone_0599100000095669,    !- Zone Name
    ,                         !- Space Name
    Outdoors,                 !- Outside Boundary Condition
    ,                         !- Outside Boundary Condition Object
    SunExposed,               !- Sun Exposure
    WindExposed,              !- Wind Exposure
    0.5,                      !- View Factor to Ground
    4,                        !- Number of Vertices
    9.073,                    !- Vertex 1 Xcoordinate
    12,                       !- Vertex 1 Ycoordinate
    8.934,                    !- Vertex 1 Zcoordinate
    9.073,                    !- Vertex 2 Xcoordinate
    12,                       !- Vertex 2 Ycoordinate
    0,                        !- Vertex 2 Zcoordinate
    8.834,                    !- Vertex 3 Xcoordinate
    12.047,                   !- Vertex 3 Ycoordinate
    0,                        !- Vertex 3 Zcoordinate
    8.834,                    !- Vertex 4 Xcoordinate
    12.047,                   !- Vertex 4 Ycoordinate
    8.934;                    !- Vertex 4 Zcoordinate

BUILDINGSURFACE:DETAILED,
    F_8,                      !- Name
    Wall,                     !- Surface Type
    C_F,                      !- Construction Name
    Zone_0599100000095669,    !- Zone Name
    ,                         !- Space Name
    Outdoors,                 !- Outside Boundary Condition
    ,                         !- Outside Boundary Condition Object
    SunExposed,               !- Sun Exposure
    WindExposed,              !- Wind Exposure
    0.5,                      !- View Factor to Ground
    4,                        !- Number of Vertices
    10.142,                   !- Vertex 1 Xcoordinate
    10.818,                   !- Vertex 1 Ycoordinate
    8.934,                    !- Vertex 1 Zcoordinate
    10.142,                   !- Vertex 2 Xcoordinate
    10.818,                   !- Vertex 2 Ycoordinate
    0,                        !- Vertex 2 Zcoordinate
    10.088,                   !- Vertex 3 Xcoordinate
    11.026,                   !- Vertex 3 Ycoordinate
    0,                        !- Vertex 3 Zcoordinate
    10.088,                   !- Vertex 4 Xcoordinate
    11.026,                   !- Vertex 4 Ycoordinate
    8.934;                    !- Vertex 4 Zcoordinate

BUILDINGSURFACE:DETAILED,
    F_9,                      !- Name
    Wall,                     !- Surface Type
    C_F,                      !- Construction Name
    Zone_0599100000095669,    !- Zone Name
    ,                         !- Space Name
    Outdoors,                 !- Outside Boundary Condition
    ,                         !- Outside Boundary Condition Object
    SunExposed,               !- Sun Exposure
    WindExposed,              !- Wind Exposure
    0.5,                      !- View Factor to Ground
    4,                        !- Number of Vertices
    8.834,                    !- Vertex 1 Xcoordinate
    12.047,                   !- Vertex 1 Ycoordinate
    8.934,                    !- Vertex 1 Zcoordinate
    8.834,                    !- Vertex 2 Xcoordinate
    12.047,                   !- Vertex 2 Ycoordinate
    0,                        !- Vertex 2 Zcoordinate
    8.597,                    !- Vertex 3 Xcoordinate
    12.057,                   !- Vertex 3 Ycoordinate
    0,                        !- Vertex 3 Zcoordinate
    8.597,                    !- Vertex 4 Xcoordinate
    12.057,                   !- Vertex 4 Ycoordinate
    8.934;                    !- Vertex 4 Zcoordinate

BUILDINGSURFACE:DETAILED,
    F_10,                     !- Name
    Wall,                     !- Surface Type
    C_F,                      !- Construction Name
    Zone_0599100000095669,    !- Zone Name
    ,                         !- Space Name
    Outdoors,                 !- Outside Boundary Condition
    ,                         !- Outside Boundary Condition Object
    SunExposed,               !- Sun Exposure
    WindExposed,              !- Wind Exposure
    0.5,                      !- View Factor to Ground
    4,                        !- Number of Vertices
    8.371,                    !- Vertex 1 Xcoordinate
    12.029,                   !- Vertex 1 Ycoordinate
    8.934,                    !- Vertex 1 Zcoordinate
    8.371,                    !- Vertex 2 Xcoordinate
    12.029,                   !- Vertex 2 Ycoordinate
    0,                        !- Vertex 2 Zcoordinate
    8.164,                    !- Vertex 3 Xcoordinate
    11.974,                   !- Vertex 3 Ycoordinate
    0,                        !- Vertex 3 Zcoordinate
    8.164,                    !- Vertex 4 Xcoordinate
    11.974,                   !- Vertex 4 Ycoordinate
    8.934;                    !- Vertex 4 Zcoordinate

BUILDINGSURFACE:DETAILED,
    F_11,                     !- Name
    Wall,                     !- Surface Type
    C_F,                      !- Construction Name
    Zone_0599100000095669,    !- Zone Name
    ,                         !- Space Name
    Outdoors,                 !- Outside Boundary Condition
    ,                         !- Outside Boundary Condition Object
    SunExposed,               !- Sun Exposure
    WindExposed,              !- Wind Exposure
    0.5,                      !- View Factor to Ground
    4,                        !- Number of Vertices
    8.597,                    !- Vertex 1 Xcoordinate
    12.057,                   !- Vertex 1 Ycoordinate
    8.934,                    !- Vertex 1 Zcoordinate
    8.597,                    !- Vertex 2 Xcoordinate
    12.057,                   !- Vertex 2 Ycoordinate
    0,                        !- Vertex 2 Zcoordinate
    8.371,                    !- Vertex 3 Xcoordinate
    12.029,                   !- Vertex 3 Ycoordinate
    0,                        !- Vertex 3 Zcoordinate
    8.371,                    !- Vertex 4 Xcoordinate
    12.029,                   !- Vertex 4 Ycoordinate
    8.934;                    !- Vertex 4 Zcoordinate

BUILDINGSURFACE:DETAILED,
    F_12,                     !- Name
    Wall,                     !- Surface Type
    C_F,                      !- Construction Name
    Zone_0599100000095669,    !- Zone Name
    ,                         !- Space Name
    Outdoors,                 !- Outside Boundary Condition
    ,                         !- Outside Boundary Condition Object
    SunExposed,               !- Sun Exposure
    WindExposed,              !- Wind Exposure
    0.5,                      !- View Factor to Ground
    4,                        !- Number of Vertices
    5.939,                    !- Vertex 1 Xcoordinate
    10.304,                   !- Vertex 1 Ycoordinate
    8.934,                    !- Vertex 1 Zcoordinate
    5.939,                    !- Vertex 2 Xcoordinate
    10.304,                   !- Vertex 2 Ycoordinate
    0,                        !- Vertex 2 Zcoordinate
    5.921,                    !- Vertex 3 Xcoordinate
    10.179,                   !- Vertex 3 Ycoordinate
    0,                        !- Vertex 3 Zcoordinate
    5.921,                    !- Vertex 4 Xcoordinate
    10.179,                   !- Vertex 4 Ycoordinate
    8.934;                    !- Vertex 4 Zcoordinate

BUILDINGSURFACE:DETAILED,
    F_13,                     !- Name
    Wall,                     !- Surface Type
    C_F,                      !- Construction Name
    Zone_0599100000095669,    !- Zone Name
    ,                         !- Space Name
    Outdoors,                 !- Outside Boundary Condition
    ,                         !- Outside Boundary Condition Object
    SunExposed,               !- Sun Exposure
    WindExposed,              !- Wind Exposure
    0.5,                      !- View Factor to Ground
    4,                        !- Number of Vertices
    8.164,                    !- Vertex 1 Xcoordinate
    11.974,                   !- Vertex 1 Ycoordinate
    8.934,                    !- Vertex 1 Zcoordinate
    8.164,                    !- Vertex 2 Xcoordinate
    11.974,                   !- Vertex 2 Ycoordinate
    0,                        !- Vertex 2 Zcoordinate
    5.939,                    !- Vertex 3 Xcoordinate
    10.304,                   !- Vertex 3 Ycoordinate
    0,                        !- Vertex 3 Zcoordinate
    5.939,                    !- Vertex 4 Xcoordinate
    10.304,                   !- Vertex 4 Ycoordinate
    8.934;                    !- Vertex 4 Zcoordinate

BUILDINGSURFACE:DETAILED,
    F_14,                     !- Name
    Wall,                     !- Surface Type
    C_F,                      !- Construction Name
    Zone_0599100000095669,    !- Zone Name
    ,                         !- Space Name
    Outdoors,                 !- Outside Boundary Condition
    ,                         !- Outside Boundary Condition Object
    SunExposed,               !- Sun Exposure
    WindExposed,              !- Wind Exposure
    0.5,                      !- View Factor to Ground
    4,                        !- Number of Vertices
    0.461,                    !- Vertex 1 Xcoordinate
    2.469,                    !- Vertex 1 Ycoordinate
    8.934,                    !- Vertex 1 Zcoordinate
    0.461,                    !- Vertex 2 Xcoordinate
    2.469,                    !- Vertex 2 Ycoordinate
    0,                        !- Vertex 2 Zcoordinate
    0.78,                     !- Vertex 3 Xcoordinate
    0,                        !- Vertex 3 Ycoordinate
    0,                        !- Vertex 3 Zcoordinate
    0.78,                     !- Vertex 4 Xcoordinate
    0,                        !- Vertex 4 Ycoordinate
    8.934;                    !- Vertex 4 Zcoordinate

BUILDINGSURFACE:DETAILED,
    F_15,                     !- Name
    Wall,                     !- Surface Type
    C_F,                      !- Construction Name
    Zone_0599100000095669,    !- Zone Name