!- Windows Line endings 

Version,
    24.2;                     !- Version Identifier

SimulationControl,
    No,                       !- Do Zone Sizing Calculation
    No,                       !- Do System Sizing Calculation
    No,                       !- Do Plant Sizing Calculation
    No,                       !- Run Simulation for Sizing Periods
    Yes,                      !- Run Simulation for Weather File Run Periods
    No,                       !- Do HVAC Sizing Simulation for Sizing Periods
    1;                        !- Maximum Number of HVAC Sizing Simulation Passes

BUILDING,
    Pand.0599100000655422,    !- Name
    0,                        !- North Axis
    City,                     !- Terrain
    0.04,                     !- Loads Convergence Tolerance Value
    0.4,                      !- Temperature Convergence Tolerance Value
    FullExterior,             !- Solar Distribution
    25,                       !- Maximum Number of Warmup Days
    1;                        !- Minimum Number of Warmup Days

Timestep,
    6;                        !- Number of Timesteps per Hour

Site:Location,
    Rotterdam.The.Hague.AP_ZH_NLD Design_Conditions,    !- Name
    51.96,                    !- Latitude
    4.45,                     !- Longitude
    1,                        !- Time Zone
    -4.5;                     !- Elevation

RunPeriod,
    Run Period 1,             !- Name
    1,                        !- Begin Month
    1,                        !- Begin Day of Month
    ,                         !- Begin Year
    12,                       !- End Month
    31,                       !- End Day of Month
    ,                         !- End Year
    ,                         !- Day of Week for Start Day
    Yes,                      !- Use Weather File Holidays and Special Days
    Yes,                      !- Use Weather File Daylight Saving Period
    No,                       !- Apply Weekend Holiday Rule
    Yes,                      !- Use Weather File Rain Indicators
    Yes,                      !- Use Weather File Snow Indicators
    No,                       !- Treat Weather as Actual
    Hour24;                   !- First Hour Interpolation Starting Values

RunPeriodControl:DaylightSavingTime,
    Last Sunday in March,     !- Start Date
    Last Sunday in October;    !- End Date

SITE:GROUNDTEMPERATURE:BUILDINGSURFACE,
    18,                       !- January Ground Temperature
    18,                       !- February Ground Temperature
    18,                       !- March Ground Temperature
    18,                       !- April Ground Temperature
    18,                       !- May Ground Temperature
    18,                       !- June Ground Temperature
    18,                       !- July Ground Temperature
    18,                       !- August Ground Temperature
    18,                       !- September Ground Temperature
    18,                       !- October Ground Temperature
    18,                       !- November Ground Temperature
    18;                       !- December Ground Temperature

SCHEDULETYPELIMITS,
    Temperature,              !- Name
    -100,                     !- Lower Limit Value
    100,                      !- Upper Limit Value
    CONTINUOUS,               !- Numeric Type
    Temperature;              !- Unit Type

SCHEDULETYPELIMITS,
    Fraction,                 !- Name
    0,                        !- Lower Limit Value
    1,                        !- Upper Limit Value
    CONTINUOUS,               !- Numeric Type
    Dimensionless;            !- Unit Type

SCHEDULETYPELIMITS,
    Control Type,             !- Name
    0,                        !- Lower Limit Value
    4,                        !- Upper Limit Value
    DISCRETE,                 !- Numeric Type
    Dimensionless;            !- Unit Type

SCHEDULE:COMPACT,
    HeatingSetpoint_Zone_0599100000655422,    !- Name
    Temperature,              !- Schedule Type Limits Name
    Through: 12/31,           !- Field 1
    For: AllDays,             !- Field 2
    Until: 24:00,             !- Field 3
    21.0;                     !- Field 4

SCHEDULE:COMPACT,
    CoolingSetpoint_Zone_0599100000655422,    !- Name
    Temperature,              !- Schedule Type Limits Name
    Through: 12/31,           !- Field 1
    For: AllDays,             !- Field 2
    Until: 24:00,             !- Field 3
    24.0;                     !- Field 4

SCHEDULE:COMPACT,
    DualSetpointControlType,    !- Name
    Control Type,             !- Schedule Type Limits Name
    Through: 12/31,           !- Field 1
    For: AllDays,             !- Field 2
    Until: 24:00,             !- Field 3
    4;                        !- Field 4

SCHEDULE:COMPACT,
    AlwaysOn,                 !- Name
    Fraction,                 !- Schedule Type Limits Name
    Through: 12/31,           !- Field 1
    For: AllDays,             !- Field 2
    Until: 24:00,             !- Field 3
    1.0;                      !- Field 4

MATERIAL,
    G.TC.1946,                !- Name
    MediumSmooth,             !- Roughness
    0.15,                     !- Thickness
    1,                        !- Conductivity
    540,                      !- Density
    1210,                     !- Specific Heat
    0.9,                      !- Thermal Absorptance
    0.7,                      !- Solar Absorptance
    0.7;                      !- Visible Absorptance

MATERIAL,
    F.TC.1946,                !- Name
    Rough,                    !- Roughness
    0.3,                      !- Thickness
    0.8571428571428572,       !- Conductivity
    1920,                     !- Density
    840,                      !- Specific Heat
    0.9,                      !- Thermal Absorptance
    0.7,                      !- Solar Absorptance
    0.7;                      !- Visible Absorptance

MATERIAL,
    R.TC.1946,                !- Name
    MediumRough,              !- Roughness
    0.2,                      !- Thickness
    0.9090909090909092,       !- Conductivity
    1500,                     !- Density
    1000,                     !- Specific Heat
    0.9,                      !- Thermal Absorptance
    0.7,                      !- Solar Absorptance
    0.7;                      !- Visible Absorptance

WINDOWMATERIAL:SIMPLEGLAZINGSYSTEM,
    W.TC.1946,                !- Name
    2.9,                      !- UFactor
    0.6,                      !- Solar Heat Gain Coefficient
    0.6;                      !- Visible Transmittance

CONSTRUCTION,
    C_G,                      !- Name
    G.TC.1946;                !- Outside Layer

CONSTRUCTION,
    C_F,                      !- Name
    F.TC.1946;                !- Outside Layer

CONSTRUCTION,
    C_R,                      !- Name
    R.TC.1946;                !- Outside Layer

GlobalGeometryRules,
    UpperLeftCorner,          !- Starting Vertex Position
    Counterclockwise,         !- Vertex Entry Direction
    World,                    !- Coordinate System
    World,                    !- Daylighting Reference Point Coordinate System
    Relative;                 !- Rectangular Surface Coordinate System

ZONE,
    Zone_0599100000655422,    !- Name
    0,                        !- Direction of Relative North
    0,                        !- X Origin
    0,                        !- Y Origin
    0,                        !- Z Origin
    1,                        !- Type
    1,                        !- Multiplier
    Autocalculate,            !- Ceiling Height
    Autocalculate,            !- Volume
    autocalculate,            !- Floor Area
    ,                         !- Zone Inside Convection Algorithm
    ,                         !- Zone Outside Convection Algorithm
    Yes;                      !- Part of Total Floor Area

BUILDINGSURFACE:DETAILED,
    G_0,                      !- Name
    Floor,                    !- Surface Type
    C_G,                      !- Construction Name
    Zone_0599100000655422,    !- Zone Name
    ,                         !- Space Name
    Ground,                   !- Outside Boundary Condition
    ,                         !- Outside Boundary Condition Object
    SunExposed,               !- Sun Exposure
    WindExposed,              !- Wind Exposure
    0.5,                      !- View Factor to Ground
    48,                       !- Number of Vertices
    13.111,                   !- Vertex 1 Xcoordinate
    2.767,                    !- Vertex 1 Ycoordinate
    0,                        !- Vertex 1 Zcoordinate
    9.53,                     !- Vertex 2 Xcoordinate
    1.58,                     !- Vertex 2 Ycoordinate
    0,                        !- Vertex 2 Zcoordinate
    7.821,                    !- Vertex 3 Xcoordinate
    6.431,                    !- Vertex 3 Ycoordinate
    0,                        !- Vertex 3 Zcoordinate
    8.37,                     !- Vertex 4 Xcoordinate
    6.621,                    !- Vertex 4 Ycoordinate
    0,                        !- Vertex 4 Zcoordinate
    6.75,                     !- Vertex 5 Xcoordinate
    11.28,                    !- Vertex 5 Ycoordinate
    0,                        !- Vertex 5 Zcoordinate
    6.441,                    !- Vertex 6 Xcoordinate
    11.17,                    !- Vertex 6 Ycoordinate
    0,                        !- Vertex 6 Zcoordinate
    5.96,                     !- Vertex 7 Xcoordinate
    12.56,                    !- Vertex 7 Ycoordinate
    0,                        !- Vertex 7 Zcoordinate
    6.261,                    !- Vertex 8 Xcoordinate
    12.7,                     !- Vertex 8 Ycoordinate
    0,                        !- Vertex 8 Zcoordinate
    4.911,                    !- Vertex 9 Xcoordinate
    16.551,                   !- Vertex 9 Ycoordinate
    0,                        !- Vertex 9 Zcoordinate
    4.601,                    !- Vertex 10 Xcoordinate
    16.461,                   !- Vertex 10 Ycoordinate
    0,                        !- Vertex 10 Zcoordinate
    4.12,                     !- Vertex 11 Xcoordinate
    17.83,                    !- Vertex 11 Ycoordinate
    0,                        !- Vertex 11 Zcoordinate
    4.451,                    !- Vertex 12 Xcoordinate
    17.94,                    !- Vertex 12 Ycoordinate
    0,                        !- Vertex 12 Zcoordinate
    2.9,                      !- Vertex 13 Xcoordinate
    22.75,                    !- Vertex 13 Ycoordinate
    0,                        !- Vertex 13 Zcoordinate
    2.258,                    !- Vertex 14 Xcoordinate
    22.538,                   !- Vertex 14 Ycoordinate
    0,                        !- Vertex 14 Zcoordinate
    2.236,                    !- Vertex 15 Xcoordinate
    22.797,                   !- Vertex 15 Ycoordinate
    0,                        !- Vertex 15 Zcoordinate
    0.783,                    !- Vertex 16 Xcoordinate
    22.302,                   !- Vertex 16 Ycoordinate
    0,                        !- Vertex 16 Zcoordinate
    0.55,                     !- Vertex 17 Xcoordinate
    22.89,                    !- Vertex 17 Ycoordinate
    0,                        !- Vertex 17 Zcoordinate
    0.128,                    !- Vertex 18 Xcoordinate
    28.261,                   !- Vertex 18 Ycoordinate
    0,                        !- Vertex 18 Zcoordinate
    0.917,                    !- Vertex 19 Xcoordinate
    28.58,                    !- Vertex 19 Ycoordinate
    0,                        !- Vertex 19 Zcoordinate
    0.9,                      !- Vertex 20 Xcoordinate
    28.924,                   !- Vertex 20 Ycoordinate
    0,                        !- Vertex 20 Zcoordinate
    0.899,                    !- Vertex 21 Xcoordinate
    28.964,                   !- Vertex 21 Ycoordinate
    0,                        !- Vertex 21 Zcoordinate
    0.848,                    !- Vertex 22 Xcoordinate
    30.029,                   !- Vertex 22 Ycoordinate
    0,                        !- Vertex 22 Zcoordinate
    24.611,                   !- Vertex 23 Xcoordinate
    34.19,                    !- Vertex 23 Ycoordinate
    0,                        !- Vertex 23 Zcoordinate
    27.62,                    !- Vertex 24 Xcoordinate
    26.36,                    !- Vertex 24 Ycoordinate
    0,                        !- Vertex 24 Zcoordinate
    27.98,                    !- Vertex 25 Xcoordinate
    25.475,                   !- Vertex 25 Ycoordinate
    0,                        !- Vertex 25 Zcoordinate
    27.376,                   !- Vertex 26 Xcoordinate
    25.274,                   !- Vertex 26 Ycoordinate
    0,                        !- Vertex 26 Zcoordinate
    29.085,                   !- Vertex 27 Xcoordinate
    20.416,                   !- Vertex 27 Ycoordinate
    0,                        !- Vertex 27 Zcoordinate
    29.956,                   !- Vertex 28 Xcoordinate
    20.605,                   !- Vertex 28 Ycoordinate
    0,                        !- Vertex 28 Zcoordinate
    32.55,                    !- Vertex 29 Xcoordinate
    14.211,                   !- Vertex 29 Ycoordinate
    0,                        !- Vertex 29 Zcoordinate
    33.231,                   !- Vertex 30 Xcoordinate
    12.291,                   !- Vertex 30 Ycoordinate
    0,                        !- Vertex 30 Zcoordinate
    30.701,                   !- Vertex 31 Xcoordinate
    11.36,                    !- Vertex 31 Ycoordinate
    0,                        !- Vertex 31 Zcoordinate
    31.161,                   !- Vertex 32 Xcoordinate
    10.051,                   !- Vertex 32 Ycoordinate
    0,                        !- Vertex 32 Zcoordinate
    29.215,                   !- Vertex 33 Xcoordinate
    9.322,                    !- Vertex 33 Ycoordinate
    0,                        !- Vertex 33 Zcoordinate
    27.487,                   !- Vertex 34 Xcoordinate
    10.063,                   !- Vertex 34 Ycoordinate
    0,                        !- Vertex 34 Zcoordinate
    27.658,                   !- Vertex 35 Xcoordinate
    8.739,                    !- Vertex 35 Ycoordinate
    0,                        !- Vertex 35 Zcoordinate
    23.28,                    !- Vertex 36 Xcoordinate
    7.101,                    !- Vertex 36 Ycoordinate
    0,                        !- Vertex 36 Zcoordinate
    23.47,                    !- Vertex 37 Xcoordinate
    6.511,                    !- Vertex 37 Ycoordinate
    0,                        !- Vertex 37 Zcoordinate
    22.47,                    !- Vertex 38 Xcoordinate
    6.151,                    !- Vertex 38 Ycoordinate
    0,                        !- Vertex 38 Zcoordinate
    23.611,                   !- Vertex 39 Xcoordinate
    2.651,                    !- Vertex 39 Ycoordinate
    0,                        !- Vertex 39 Zcoordinate
    16.111,                   !- Vertex 40 Xcoordinate
    0,                        !- Vertex 40 Ycoordinate
    0,                        !- Vertex 40 Zcoordinate
    15.558,                   !- Vertex 41 Xcoordinate
    1.493,                    !- Vertex 41 Ycoordinate
    0,                        !- Vertex 41 Zcoordinate
    15.643,                   !- Vertex 42 Xcoordinate
    1.718,                    !- Vertex 42 Ycoordinate
    0,                        !- Vertex 42 Zcoordinate
    15.493,                   !- Vertex 43 Xcoordinate
    2.076,                    !- Vertex 43 Ycoordinate
    0,                        !- Vertex 43 Zcoordinate
    15.368,                   !- Vertex 44 Xcoordinate
    2.005,                    !- Vertex 44 Ycoordinate
    0,                        !- Vertex 44 Zcoordinate
    14.87,                    !- Vertex 45 Xcoordinate
    3.351,                    !- Vertex 45 Ycoordinate
    0,                        !- Vertex 45 Zcoordinate
    13.564,                   !- Vertex 46 Xcoordinate
    2.918,                    !- Vertex 46 Ycoordinate
    0,                        !- Vertex 46 Zcoordinate
    13.494,                   !- Vertex 47 Xcoordinate
    3.088,                    !- Vertex 47 Ycoordinate
    0,                        !- Vertex 47 Zcoordinate
    12.977,                   !- Vertex 48 Xcoordinate
    3.008,                    !- Vertex 48 Ycoordinate
    0;                        !- Vertex 48 Zcoordinate

BUILDINGSURFACE:DETAILED,
    F_1,                      !- Name
    Wall,                     !- Surface Type
    C_F,                      !- Construction Name
    Zone_0599100000655422,    !- Zone Name
    ,                         !- Space Name
    Outdoors,                 !- Outside Boundary Condition
    ,                         !- Outside Boundary Condition Object
    SunExposed,               !- Sun Exposure
    WindExposed,              !- Wind Exposure
    0.5,                      !- View Factor to Ground
    4,                        !- Number of Vertices
    14.87,                    !- Vertex 1 Xcoordinate
    3.351,                    !- Vertex 1 Ycoordinate
    20.726,                   !- Vertex 1 Zcoordinate
    14.87,                    !- Vertex 2 Xcoordinate
    3.351,                    !- Vertex 2 Ycoordinate
    0,                        !- Vertex 2 Zcoordinate
    15.368,                   !- Vertex 3 Xcoordinate
    2.005,                    !- Vertex 3 Ycoordinate
    0,                        !- Vertex 3 Zcoordinate
    15.368,                   !- Vertex 4 Xcoordinate
    2.005,                    !- Vertex 4 Ycoordinate
    20.726;                   !- Vertex 4 Zcoordinate

BUILDINGSURFACE:DETAILED,
    F_2,                      !- Name
    Wall,                     !- Surface Type
    C_F,                      !- Construction Name
    Zone_0599100000655422,    !- Zone Name
    ,                         !- Space Name
    Outdoors,                 !- Outside Boundary Condition
    ,                         !- Outside Boundary Condition Object
    SunExposed,               !- Sun Exposure
    WindExposed,              !- Wind Exposure
    0.5,                      !- View Factor to Ground
    4,                        !- Number of Vertices
    15.368,                   !- Vertex 1 Xcoordinate
    2.005,                    !- Vertex 1 Ycoordinate
    20.726,                   !- Vertex 1 Zcoordinate
    15.368,                   !- Vertex 2 Xcoordinate
    2.005,                    !- Vertex 2 Ycoordinate
    0,                        !- Vertex 2 Zcoordinate
    15.493,                   !- Vertex 3 Xcoordinate
    2.076,                    !- Vertex 3 Ycoordinate
    0,                        !- Vertex 3 Zcoordinate
    15.493,                   !- Vertex 4 Xcoordinate
    2.076,                    !- Vertex 4 Ycoordinate
    20.726;                   !- Vertex 4 Zcoordinate

BUILDINGSURFACE:DETAILED,
    F_3,                      !- Name
    Wall,                     !- Surface Type
    C_F,                      !- Construction Name
    Zone_0599100000655422,    !- Zone Name
    ,                         !- Space Name
    Outdoors,                 !- Outside Boundary Condition
    ,                         !- Outside Boundary Condition Object
    SunExposed,               !- Sun Exposure
    WindExposed,              !- Wind Exposure
    0.5,                      !- View Factor to Ground
    4,                        !- Number of Vertices
    0.783,                    !- Vertex 1 Xcoordinate
    22.302,                   !- Vertex 1 Ycoordinate
    20.726,                   !- Vertex 1 Zcoordinate
    0.783,                    !- Vertex 2 Xcoordinate
    22.302,                   !- Vertex 2 Ycoordinate
    0,                        !- Vertex 2 Zcoordinate
    2.236,                    !- Vertex 3 Xcoordinate
    22.797,                   !- Vertex 3 Ycoordinate
    0,                        !- Vertex 3 Zcoordinate
    2.236,                    !- Vertex 4 Xcoordinate
    22.797,                   !- Vertex 4 Ycoordinate
    20.726;                   !- Vertex 4 Zcoordinate

BUILDINGSURFACE:DETAILED,
    F_4,                      !- Name
    Wall,                     !- Surface Type
    C_F,                      !- Construction Name
    Zone_0599100000655422,    !- Zone Name
    ,                         !- Space Name
    Outdoors,                 !- Outside Boundary Condition
    ,                         !- Outside Boundary Condition Object
    SunExposed,               !- Sun Exposure
    WindExposed,              !- Wind Exposure
    0.5,                      !- View Factor to Ground
    4,                        !- Number of Vertices
    2.236,                    !- Vertex 1 Xcoordinate
    22.797,                   !- Vertex 1 Ycoordinate
    20.726,                   !- Vertex 1 Zcoordinate
    2.236,                    !- Vertex 2 Xcoordinate
    22.797,                   !- Vertex 2 Ycoordinate
    0,                        !- Vertex 2 Zcoordinate
    2.258,                    !- Vertex 3 Xcoordinate
    22.538,                   !- Vertex 3 Ycoordinate
    0,                        !- Vertex 3 Zcoordinate
    2.258,                    !- Vertex 4 Xcoordinate
    22.538,                   !- Vertex 4 Ycoordinate
    20.726;                   !- Vertex 4 Zcoordinate

BUILDINGSURFACE:DETAILED,
    F_5,                      !- Name
    Wall,                     !- Surface Type
    C_F,                      !- Construction Name
    Zone_0599100000655422,    !- Zone Name
    ,                         !- Space Name
    Outdoors,                 !- Outside Boundary Condition
    ,                         !- Outside Boundary Condition Object
    SunExposed,               !- Sun Exposure
    WindExposed,              !- Wind Exposure
    0.5,                      !- View Factor to Ground
    4,                        !- Number of Vertices
    6.441,                    !- Vertex 1 Xcoordinate
    11.17,                    !- Vertex 1 Ycoordinate
    20.726,                   !- Vertex 1 Zcoordinate
    6.441,                    !- Vertex 2 Xcoordinate
    11.17,                    !- Vertex 2 Ycoordinate
    0,                        !- Vertex 2 Zcoordinate
    6.75,                     !- Vertex 3 Xcoordinate
    11.28,                    !- Vertex 3 Ycoordinate
    0,                        !- Vertex 3 Zcoordinate
    6.75,                     !- Vertex 4 Xcoordinate
    11.28,                    !- Vertex 4 Ycoordinate
    20.726;                   !- Vertex 4 Zcoordinate

BUILDINGSURFACE:DETAILED,
    F_6,                      !- Name
    Wall,                     !- Surface Type
    C_F,                      !- Construction Name
    Zone_0599100000655422,    !- Zone Name
    ,                         !- Space Name
    Outdoors,                 !- Outside Boundary Condition
    ,                         !- Outside Boundary Condition Object
    SunExposed,               !- Sun Exposure
    WindExposed,              !- Wind Exposure
    0.5,                      !- View Factor to Ground
    4,                        !- Number of Vertices
    5.96,                     !- Vertex 1 Xcoordinate
    12.56,                    !- Vertex 1 Ycoordinate
    20.726,                   !- Vertex 1 Zcoordinate
    5.96,                     !- Vertex 2 Xcoordinate
    12.56,                    !- Vertex 2 Ycoordinate
    0,                        !- Vertex 2 Zcoordinate
    6.441,                    !- Vertex 3 Xcoordinate
    11.17,                    !- Vertex 3 Ycoordinate
    0,                        !- Vertex 3 Zcoordinate
    6.441,                    !- Vertex 4 Xcoordinate
    11.17,                    !- Vertex 4 Ycoordinate
    20.726;                   !- Vertex 4 Zcoordinate

BUILDINGSURFACE:DETAILED,
    F_7,                      !- Name
    Wall,                     !- Surface Type
    C_F,                      !- Construction Name
    Zone_0599100000655422,    !- Zone Name
    ,                         !- Space Name
    Outdoors,                 !- Outside Boundary Condition
    ,                         !- Outside Boundary Condition Object
    SunExposed,               !- Sun Exposure
    WindExposed,              !- Wind Exposure
    0.5,                      !- View Factor to Ground
    4,                        !- Number of Vertices
    4.451,                    !- Vertex 1 Xcoordinate
    17.94,                    !- Vertex 1 Ycoordinate
    20.726,                   !- Vertex 1 Zcoordinate
    4.451,                    !- Vertex 2 Xcoordinate
    17.94,                    !- Vertex 2 Ycoordinate
    0,                        !- Vertex 2 Zcoordinate
    4.12,                     !- Vertex 3 Xcoordinate
    17.83,                    !- Vertex 3 Ycoordinate
    0,                        !- Vertex 3 Zcoordinate
    4.12,                     !- Vertex 4 Xcoordinate
    17.83,                    !- Vertex 4 Ycoordinate
    20.726;                   !- Vertex 4 Zcoordinate

BUILDINGSURFACE:DETAILED,
    F_8,                      !- Name
    Wall,                     !- Surface Type
    C_F,                      !- Construction Name
    Zone_0599100000655422,    !- Zone Name
    ,                         !- Space Name
    Outdoors,                 !- Outside Boundary Condition
    ,                         !- Outside Boundary Condition Object
    SunExposed,               !- Sun Exposure
    WindExposed,              !- Wind Exposure
    0.5,                      !- View Factor to Ground
    4,                        !- Number of Vertices
    2.9,                      !- Vertex 1 Xcoordinate
    22.75,                    !- Vertex 1 Ycoordinate
    20.726,                   !- Vertex 1 Zcoordinate
    2.9,                      !- Vertex 2 Xcoordinate
    22.75,                    !- Vertex 2 Ycoordinate
    0,                        !- Vertex 2 Zcoordinate
    4.451,                    !- Vertex 3 Xcoordinate
    17.94,                    !- Vertex 3 Ycoordinate
    0,                        !- Vertex 3 Zcoordinate
    4.451,                    !- Vertex 4 Xcoordinate
    17.94,                    !- Vertex 4 Ycoordinate
    20.726;                   !- Vertex 4 Zcoordinate

BUILDINGSURFACE:DETAILED,
    F_9,                      !- Name
    Wall,                     !- Surface Type
    C_F,                      !- Construction Name
    Zone_0599100000655422,    !- Zone Name
    ,                         !- Space Name
    Outdoors,                 !- Outside Boundary Condition
    ,                         !- Outside Boundary Condition Object
    SunExposed,               !- Sun Exposure
    WindExposed,              !- Wind Exposure
    0.5,                      !- View Factor to Ground
    4,                        !- Number of Vertices
    4.12,                     !- Vertex 1 Xcoordinate
    17.83,                    !- Vertex 1 Ycoordinate
    20.726,                   !- Vertex 1 Zcoordinate
    4.12,                     !- Vertex 2 Xcoordinate
    17.83,                    !- Vertex 2 Ycoordinate
    0,                        !- Vertex 2 Zcoordinate
    4.601,                    !- Vertex 3 Xcoordinate
    16.461,                   !- Vertex 3 Ycoordinate
    0,                        !- Vertex 3 Zcoordinate
    4.601,                    !- Vertex 4 Xcoordinate
    16.461,                   !- Vertex 4 Ycoordinate
    20.726;                   !- Vertex 4 Zcoordinate

BUILDINGSURFACE:DETAILED,
    F_10,                     !- Name
    Wall,                     !- Surface Type
    C_F,                      !- Construction Name
    Zone_0599100000655422,    !- Zone Name
    ,                         !- Space Name
    Outdoors,                 !- Outside Boundary Condition
    ,                         !- Outside Boundary Condition Object
    SunExposed,               !- Sun Exposure
    WindExposed,              !- Wind Exposure
    0.5,                      !- View Factor to Ground
    4,                        !- Number of Vertices
    4.601,                    !- Vertex 1 Xcoordinate
    16.461,                   !- Vertex 1 Ycoordinate
    20.726,                   !- Vertex 1 Zcoordinate
    4.601,                    !- Vertex 2 Xcoordinate
    16.461,                   !- Vertex 2 Ycoordinate
    0,                        !- Vertex 2 Zcoordinate
    4.911,                    !- Vertex 3 Xcoordinate
    16.551,                   !- Vertex 3 Ycoordinate
    0,                        !- Vertex 3 Zcoordinate
    4.911,                    !- Vertex 4 Xcoordinate
    16.551,                   !- Vertex 4 Ycoordinate
    20.726;                   !- Vertex 4 Zcoordinate

BUILDINGSURFACE:DETAILED,
    F_11,                     !- Name
    Wall,                     !- Surface Type
    C_F,                      !- Construction Name
    Zone_0599100000655422,    !- Zone Name
    ,                         !- Space Name
    Outdoors,                 !- Outside Boundary Condition
    ,                         !- Outside Boundary Condition Object
    SunExposed,               !- Sun Exposure
    WindExposed,              !- Wind Exposure
    0.5,                      !- View Factor to Ground
    4,                        !- Number of Vertices
    4.911,                    !- Vertex 1 Xcoordinate
    16.551,                   !- Vertex 1 Ycoordinate
    20.726,                   !- Vertex 1 Zcoordinate
    4.911,                    !- Vertex 2 Xcoordinate
    16.551,                   !- Vertex 2 Ycoordinate
    0,                        !- Vertex 2 Zcoordinate
    6.261,                    !- Vertex 3 Xcoordinate
    12.7,                     !- Vertex 3 Ycoordinate
    0,                        !- Vertex 3 Zcoordinate
    6.261,                    !- Vertex 4 Xcoordinate
    12.7,                     !- Vertex 4 Ycoordinate
    20.726;                   !- Vertex 4 Zcoordinate

BUILDINGSURFACE:DETAILED,
    F_12,                     !- Name
    Wall,                     !- Surface Type
    C_F,                      !- Construction Name
    Zone_0599100000655422,    !- Zone Name
    ,                         !- Space Name